* NGSPICE file created from cbx_1__1_.ext - technology: sky130A

* Black-box entry subcircuit for sky130_fd_sc_hd__tapvpwrvgnd_1 abstract view
.subckt sky130_fd_sc_hd__tapvpwrvgnd_1 VGND VPWR
.ends

* Black-box entry subcircuit for sky130_fd_sc_hd__decap_3 abstract view
.subckt sky130_fd_sc_hd__decap_3 VGND VNB VPB VPWR
.ends

* Black-box entry subcircuit for sky130_fd_sc_hd__decap_6 abstract view
.subckt sky130_fd_sc_hd__decap_6 VGND VNB VPB VPWR
.ends

* Black-box entry subcircuit for sky130_ef_sc_hd__decap_12 abstract view
.subckt sky130_ef_sc_hd__decap_12 VGND VNB VPB VPWR
.ends

* Black-box entry subcircuit for sky130_fd_sc_hd__ebufn_2 abstract view
.subckt sky130_fd_sc_hd__ebufn_2 A TE_B VGND VNB VPB VPWR Z
.ends

* Black-box entry subcircuit for sky130_fd_sc_hd__fill_1 abstract view
.subckt sky130_fd_sc_hd__fill_1 VGND VNB VPB VPWR
.ends

* Black-box entry subcircuit for sky130_fd_sc_hd__inv_2 abstract view
.subckt sky130_fd_sc_hd__inv_2 A VGND VNB VPB VPWR Y
.ends

* Black-box entry subcircuit for sky130_fd_sc_hd__clkbuf_1 abstract view
.subckt sky130_fd_sc_hd__clkbuf_1 A VGND VNB VPB VPWR X
.ends

* Black-box entry subcircuit for sky130_fd_sc_hd__decap_4 abstract view
.subckt sky130_fd_sc_hd__decap_4 VGND VNB VPB VPWR
.ends

* Black-box entry subcircuit for sky130_fd_sc_hd__diode_2 abstract view
.subckt sky130_fd_sc_hd__diode_2 DIODE VGND VNB VPB VPWR
.ends

* Black-box entry subcircuit for sky130_fd_sc_hd__decap_8 abstract view
.subckt sky130_fd_sc_hd__decap_8 VGND VNB VPB VPWR
.ends

* Black-box entry subcircuit for sky130_fd_sc_hd__fill_2 abstract view
.subckt sky130_fd_sc_hd__fill_2 VGND VNB VPB VPWR
.ends

* Black-box entry subcircuit for sky130_fd_sc_hd__dfrtp_4 abstract view
.subckt sky130_fd_sc_hd__dfrtp_4 CLK D RESET_B VGND VNB VPB VPWR Q
.ends

* Black-box entry subcircuit for sky130_fd_sc_hd__buf_2 abstract view
.subckt sky130_fd_sc_hd__buf_2 A VGND VNB VPB VPWR X
.ends

* Black-box entry subcircuit for sky130_fd_sc_hd__dfrtp_1 abstract view
.subckt sky130_fd_sc_hd__dfrtp_1 CLK D RESET_B VGND VNB VPB VPWR Q
.ends

* Black-box entry subcircuit for sky130_fd_sc_hd__clkbuf_2 abstract view
.subckt sky130_fd_sc_hd__clkbuf_2 A VGND VNB VPB VPWR X
.ends

* Black-box entry subcircuit for sky130_fd_sc_hd__dfrtp_2 abstract view
.subckt sky130_fd_sc_hd__dfrtp_2 CLK D RESET_B VGND VNB VPB VPWR Q
.ends

* Black-box entry subcircuit for sky130_fd_sc_hd__buf_4 abstract view
.subckt sky130_fd_sc_hd__buf_4 A VGND VNB VPB VPWR X
.ends

* Black-box entry subcircuit for sky130_fd_sc_hd__ebufn_4 abstract view
.subckt sky130_fd_sc_hd__ebufn_4 A TE_B VGND VNB VPB VPWR Z
.ends

* Black-box entry subcircuit for sky130_fd_sc_hd__clkinv_2 abstract view
.subckt sky130_fd_sc_hd__clkinv_2 A VGND VNB VPB VPWR Y
.ends

* Black-box entry subcircuit for sky130_fd_sc_hd__ebufn_1 abstract view
.subckt sky130_fd_sc_hd__ebufn_1 A TE_B VGND VNB VPB VPWR Z
.ends

* Black-box entry subcircuit for sky130_fd_sc_hd__dlymetal6s2s_1 abstract view
.subckt sky130_fd_sc_hd__dlymetal6s2s_1 A VGND VNB VPB VPWR X
.ends

* Black-box entry subcircuit for sky130_fd_sc_hd__conb_1 abstract view
.subckt sky130_fd_sc_hd__conb_1 VGND VNB VPB VPWR HI LO
.ends

.subckt cbx_1__1_ bottom_grid_top_width_0_height_0_subtile_0__pin_I_0_ bottom_grid_top_width_0_height_0_subtile_0__pin_I_4_
+ bottom_grid_top_width_0_height_0_subtile_0__pin_I_8_ bottom_grid_top_width_0_height_0_subtile_0__pin_clk_0_
+ ccff_head ccff_tail chanx_left_in[0] chanx_left_in[10] chanx_left_in[11] chanx_left_in[12]
+ chanx_left_in[13] chanx_left_in[14] chanx_left_in[15] chanx_left_in[16] chanx_left_in[17]
+ chanx_left_in[18] chanx_left_in[1] chanx_left_in[2] chanx_left_in[3] chanx_left_in[4]
+ chanx_left_in[5] chanx_left_in[6] chanx_left_in[7] chanx_left_in[8] chanx_left_in[9]
+ chanx_left_out[0] chanx_left_out[10] chanx_left_out[11] chanx_left_out[12] chanx_left_out[13]
+ chanx_left_out[14] chanx_left_out[15] chanx_left_out[16] chanx_left_out[17] chanx_left_out[18]
+ chanx_left_out[1] chanx_left_out[2] chanx_left_out[3] chanx_left_out[4] chanx_left_out[5]
+ chanx_left_out[6] chanx_left_out[7] chanx_left_out[8] chanx_left_out[9] chanx_right_in[0]
+ chanx_right_in[10] chanx_right_in[11] chanx_right_in[12] chanx_right_in[13] chanx_right_in[14]
+ chanx_right_in[15] chanx_right_in[16] chanx_right_in[17] chanx_right_in[18] chanx_right_in[1]
+ chanx_right_in[2] chanx_right_in[3] chanx_right_in[4] chanx_right_in[5] chanx_right_in[6]
+ chanx_right_in[7] chanx_right_in[8] chanx_right_in[9] chanx_right_out[0] chanx_right_out[10]
+ chanx_right_out[11] chanx_right_out[12] chanx_right_out[13] chanx_right_out[14]
+ chanx_right_out[15] chanx_right_out[16] chanx_right_out[17] chanx_right_out[18]
+ chanx_right_out[1] chanx_right_out[2] chanx_right_out[3] chanx_right_out[4] chanx_right_out[5]
+ chanx_right_out[6] chanx_right_out[7] chanx_right_out[8] chanx_right_out[9] pReset
+ prog_clk top_grid_bottom_width_0_height_0_subtile_0__pin_I_10_ top_grid_bottom_width_0_height_0_subtile_0__pin_I_2_
+ top_grid_bottom_width_0_height_0_subtile_0__pin_I_6_ vccd1 vssd1 vssd1_uq0 vccd1_uq0
XTAP_177 vssd1 vccd1 sky130_fd_sc_hd__tapvpwrvgnd_1
XTAP_188 vssd1 vccd1 sky130_fd_sc_hd__tapvpwrvgnd_1
XTAP_199 vssd1 vccd1 sky130_fd_sc_hd__tapvpwrvgnd_1
XFILLER_52_29 vssd1 vssd1 vccd1 vccd1 sky130_fd_sc_hd__decap_3
XFILLER_22_133 vssd1 vssd1 vccd1 vccd1 sky130_fd_sc_hd__decap_6
XFILLER_22_177 vssd1 vssd1 vccd1 vccd1 sky130_ef_sc_hd__decap_12
XFILLER_45_225 vssd1 vssd1 vccd1 vccd1 sky130_ef_sc_hd__decap_12
X_432_ mux_top_ipin_1.INVTX1_2_.out _089_ vssd1 vssd1 vccd1 vccd1 mux_top_ipin_1.mux_2level_tapbuf_basis_input3_mem3_0_out
+ sky130_fd_sc_hd__ebufn_2
XFILLER_13_111 vssd1 vssd1 vccd1 vccd1 sky130_fd_sc_hd__fill_1
XFILLER_26_41 vssd1 vssd1 vccd1 vccd1 sky130_ef_sc_hd__decap_12
XFILLER_26_85 vssd1 vssd1 vccd1 vccd1 sky130_ef_sc_hd__decap_12
X_294_ _045_ vssd1 vssd1 vccd1 vccd1 _034_ sky130_fd_sc_hd__inv_2
XFILLER_9_137 vssd1 vssd1 vccd1 vccd1 sky130_ef_sc_hd__decap_12
X_363_ net36 vssd1 vssd1 vccd1 vccd1 net61 sky130_fd_sc_hd__clkbuf_1
XFILLER_47_8 vssd1 vssd1 vccd1 vccd1 sky130_fd_sc_hd__decap_4
XFILLER_59_317 vssd1 vssd1 vccd1 vccd1 sky130_ef_sc_hd__decap_12
XFILLER_27_225 vssd1 vssd1 vccd1 vccd1 sky130_ef_sc_hd__decap_12
XANTENNA__214__A mem_bottom_ipin_0.DFFR_2_.Q vssd1 vssd1 vccd1 vccd1 sky130_fd_sc_hd__diode_2
XFILLER_2_357 vssd1 vssd1 vccd1 vccd1 sky130_fd_sc_hd__decap_6
XFILLER_12_65 vssd1 vssd1 vccd1 vccd1 sky130_ef_sc_hd__decap_12
XFILLER_41_272 vssd1 vssd1 vccd1 vccd1 sky130_fd_sc_hd__decap_4
XFILLER_41_261 vssd1 vssd1 vccd1 vccd1 sky130_fd_sc_hd__decap_8
X_415_ mux_top_ipin_0.INVTX1_7_.out _072_ vssd1 vssd1 vccd1 vccd1 mux_top_ipin_0.mux_2level_tapbuf_basis_input3_mem3_2_out
+ sky130_fd_sc_hd__ebufn_2
XFILLER_33_217 vssd1 vssd1 vccd1 vccd1 sky130_fd_sc_hd__decap_6
X_277_ _043_ vssd1 vssd1 vccd1 vccd1 _019_ sky130_fd_sc_hd__inv_2
XFILLER_56_309 vssd1 vssd1 vccd1 vccd1 sky130_ef_sc_hd__decap_12
XFILLER_49_361 vssd1 vssd1 vccd1 vccd1 sky130_ef_sc_hd__decap_12
XFILLER_59_169 vssd1 vssd1 vccd1 vccd1 sky130_fd_sc_hd__fill_2
XFILLER_59_136 vssd1 vssd1 vccd1 vccd1 sky130_fd_sc_hd__decap_4
X_200_ mem_bottom_ipin_1.DFFR_0_.Q vssd1 vssd1 vccd1 vccd1 _068_ sky130_fd_sc_hd__inv_2
XFILLER_30_209 vssd1 vssd1 vccd1 vccd1 sky130_ef_sc_hd__decap_12
XFILLER_15_217 vssd1 vssd1 vccd1 vccd1 sky130_fd_sc_hd__decap_6
XFILLER_23_261 vssd1 vssd1 vccd1 vccd1 sky130_ef_sc_hd__decap_12
XFILLER_38_309 vssd1 vssd1 vccd1 vccd1 sky130_ef_sc_hd__decap_12
XFILLER_2_121 vssd1 vssd1 vccd1 vccd1 sky130_ef_sc_hd__decap_12
XFILLER_48_83 vssd1 vssd1 vccd1 vccd1 sky130_fd_sc_hd__fill_1
XFILLER_0_57 vssd1 vssd1 vccd1 vccd1 sky130_fd_sc_hd__fill_2
XFILLER_0_79 vssd1 vssd1 vccd1 vccd1 sky130_fd_sc_hd__fill_1
X_329_ prog_clk mem_top_ipin_2.DFFR_1_.Q _027_ vssd1 vssd1 vccd1 vccd1 mem_top_ipin_2.DFFR_2_.Q
+ sky130_fd_sc_hd__dfrtp_4
XFILLER_9_33 vssd1 vssd1 vccd1 vccd1 sky130_ef_sc_hd__decap_12
XFILLER_50_3 vssd1 vssd1 vccd1 vccd1 sky130_fd_sc_hd__fill_2
XFILLER_49_180 vssd1 vssd1 vccd1 vccd1 sky130_fd_sc_hd__decap_4
XFILLER_52_345 vssd1 vssd1 vccd1 vccd1 sky130_ef_sc_hd__decap_12
XFILLER_52_301 vssd1 vssd1 vccd1 vccd1 sky130_fd_sc_hd__decap_6
XFILLER_12_209 vssd1 vssd1 vccd1 vccd1 sky130_ef_sc_hd__decap_12
XFILLER_60_29 vssd1 vssd1 vccd1 vccd1 sky130_fd_sc_hd__fill_2
XFILLER_20_253 vssd1 vssd1 vccd1 vccd1 sky130_ef_sc_hd__decap_12
XFILLER_47_117 vssd1 vssd1 vccd1 vccd1 sky130_fd_sc_hd__decap_4
XFILLER_47_106 vssd1 vssd1 vccd1 vccd1 sky130_fd_sc_hd__fill_1
XFILLER_18_53 vssd1 vssd1 vccd1 vccd1 sky130_ef_sc_hd__decap_12
XFILLER_18_97 vssd1 vssd1 vccd1 vccd1 sky130_ef_sc_hd__decap_12
XFILLER_34_85 vssd1 vssd1 vccd1 vccd1 sky130_ef_sc_hd__decap_12
XFILLER_34_41 vssd1 vssd1 vccd1 vccd1 sky130_ef_sc_hd__decap_12
XTAP_507 vssd1 vccd1 sky130_fd_sc_hd__tapvpwrvgnd_1
XFILLER_7_279 vssd1 vssd1 vccd1 vccd1 sky130_fd_sc_hd__fill_1
XTAP_529 vssd1 vccd1 sky130_fd_sc_hd__tapvpwrvgnd_1
XTAP_518 vssd1 vccd1 sky130_fd_sc_hd__tapvpwrvgnd_1
XFILLER_38_117 vssd1 vssd1 vccd1 vccd1 sky130_fd_sc_hd__decap_4
XFILLER_61_131 vssd1 vssd1 vccd1 vccd1 sky130_fd_sc_hd__decap_4
XFILLER_34_301 vssd1 vssd1 vccd1 vccd1 sky130_fd_sc_hd__decap_6
XFILLER_52_197 vssd1 vssd1 vccd1 vccd1 sky130_ef_sc_hd__decap_12
XFILLER_20_10 vssd1 vssd1 vccd1 vccd1 sky130_ef_sc_hd__decap_12
XFILLER_20_65 vssd1 vssd1 vccd1 vccd1 sky130_ef_sc_hd__decap_12
XANTENNA__222__A net36 vssd1 vssd1 vccd1 vccd1 sky130_fd_sc_hd__diode_2
XFILLER_35_109 vssd1 vssd1 vccd1 vccd1 sky130_fd_sc_hd__decap_3
XANTENNA_input18_A chanx_left_in[7] vssd1 vssd1 vccd1 vccd1 sky130_fd_sc_hd__diode_2
XFILLER_16_301 vssd1 vssd1 vccd1 vccd1 sky130_fd_sc_hd__decap_6
XFILLER_16_345 vssd1 vssd1 vccd1 vccd1 sky130_ef_sc_hd__decap_12
XFILLER_61_61 vssd1 vssd1 vccd1 vccd1 sky130_fd_sc_hd__decap_4
XFILLER_43_197 vssd1 vssd1 vccd1 vccd1 sky130_fd_sc_hd__decap_4
XFILLER_31_337 vssd1 vssd1 vccd1 vccd1 sky130_ef_sc_hd__decap_12
XTAP_348 vssd1 vccd1 sky130_fd_sc_hd__tapvpwrvgnd_1
XTAP_337 vssd1 vccd1 sky130_fd_sc_hd__tapvpwrvgnd_1
XTAP_326 vssd1 vccd1 sky130_fd_sc_hd__tapvpwrvgnd_1
XFILLER_3_293 vssd1 vssd1 vccd1 vccd1 sky130_ef_sc_hd__decap_12
XTAP_304 vssd1 vccd1 sky130_fd_sc_hd__tapvpwrvgnd_1
XTAP_315 vssd1 vccd1 sky130_fd_sc_hd__tapvpwrvgnd_1
XTAP_359 vssd1 vccd1 sky130_fd_sc_hd__tapvpwrvgnd_1
XFILLER_13_3 vssd1 vssd1 vccd1 vccd1 sky130_ef_sc_hd__decap_12
XFILLER_19_161 vssd1 vssd1 vccd1 vccd1 sky130_fd_sc_hd__decap_6
XFILLER_26_109 vssd1 vssd1 vccd1 vccd1 sky130_ef_sc_hd__decap_12
XFILLER_34_197 vssd1 vssd1 vccd1 vccd1 sky130_ef_sc_hd__decap_12
XFILLER_34_131 vssd1 vssd1 vccd1 vccd1 sky130_fd_sc_hd__decap_4
XFILLER_57_223 vssd1 vssd1 vccd1 vccd1 sky130_fd_sc_hd__fill_1
XFILLER_1_219 vssd1 vssd1 vccd1 vccd1 sky130_fd_sc_hd__decap_4
XFILLER_15_21 vssd1 vssd1 vccd1 vccd1 sky130_ef_sc_hd__decap_12
XFILLER_40_134 vssd1 vssd1 vccd1 vccd1 sky130_fd_sc_hd__fill_1
XANTENNA__217__A mux_bottom_ipin_0.mux_2level_tapbuf_basis_input3_mem3_3_out vssd1
+ vssd1 vccd1 vccd1 sky130_fd_sc_hd__diode_2
XFILLER_13_337 vssd1 vssd1 vccd1 vccd1 sky130_ef_sc_hd__decap_12
Xoutput64 net64 vssd1 vssd1 vccd1 vccd1 chanx_left_out[9] sky130_fd_sc_hd__buf_2
Xoutput42 net42 vssd1 vssd1 vccd1 vccd1 bottom_grid_top_width_0_height_0_subtile_0__pin_I_4_
+ sky130_fd_sc_hd__buf_2
Xoutput75 net75 vssd1 vssd1 vccd1 vccd1 chanx_right_out[1] sky130_fd_sc_hd__buf_2
Xoutput53 net53 vssd1 vssd1 vccd1 vccd1 chanx_left_out[16] sky130_fd_sc_hd__buf_2
XFILLER_63_237 vssd1 vssd1 vccd1 vccd1 sky130_ef_sc_hd__decap_12
XFILLER_48_289 vssd1 vssd1 vccd1 vccd1 sky130_ef_sc_hd__decap_12
XFILLER_48_245 vssd1 vssd1 vccd1 vccd1 sky130_fd_sc_hd__decap_6
Xoutput86 net86 vssd1 vssd1 vccd1 vccd1 top_grid_bottom_width_0_height_0_subtile_0__pin_I_6_
+ sky130_fd_sc_hd__buf_2
XFILLER_31_167 vssd1 vssd1 vccd1 vccd1 sky130_fd_sc_hd__fill_1
XFILLER_16_153 vssd1 vssd1 vccd1 vccd1 sky130_ef_sc_hd__decap_12
XFILLER_16_197 vssd1 vssd1 vccd1 vccd1 sky130_ef_sc_hd__decap_12
XFILLER_8_363 vssd1 vssd1 vccd1 vccd1 sky130_fd_sc_hd__fill_1
XFILLER_8_385 vssd1 vssd1 vccd1 vccd1 sky130_fd_sc_hd__fill_1
XFILLER_39_234 vssd1 vssd1 vccd1 vccd1 sky130_ef_sc_hd__decap_12
XTAP_167 vssd1 vccd1 sky130_fd_sc_hd__tapvpwrvgnd_1
XTAP_156 vssd1 vccd1 sky130_fd_sc_hd__tapvpwrvgnd_1
XTAP_134 vssd1 vccd1 sky130_fd_sc_hd__tapvpwrvgnd_1
XTAP_145 vssd1 vccd1 sky130_fd_sc_hd__tapvpwrvgnd_1
XTAP_178 vssd1 vccd1 sky130_fd_sc_hd__tapvpwrvgnd_1
XTAP_189 vssd1 vccd1 sky130_fd_sc_hd__tapvpwrvgnd_1
XFILLER_54_237 vssd1 vssd1 vccd1 vccd1 sky130_fd_sc_hd__decap_4
XFILLER_39_278 vssd1 vssd1 vccd1 vccd1 sky130_fd_sc_hd__fill_2
XFILLER_10_307 vssd1 vssd1 vccd1 vccd1 sky130_fd_sc_hd__fill_1
XFILLER_22_189 vssd1 vssd1 vccd1 vccd1 sky130_fd_sc_hd__decap_6
XFILLER_53_281 vssd1 vssd1 vccd1 vccd1 sky130_ef_sc_hd__decap_12
XFILLER_45_237 vssd1 vssd1 vccd1 vccd1 sky130_ef_sc_hd__decap_12
X_431_ mux_top_ipin_0.INVTX1_3_.out _088_ vssd1 vssd1 vccd1 vccd1 mux_top_ipin_1.mux_2level_tapbuf_basis_input3_mem3_0_out
+ sky130_fd_sc_hd__ebufn_2
X_362_ net37 vssd1 vssd1 vccd1 vccd1 net62 sky130_fd_sc_hd__clkbuf_1
XFILLER_9_105 vssd1 vssd1 vccd1 vccd1 sky130_fd_sc_hd__decap_6
XFILLER_13_167 vssd1 vssd1 vccd1 vccd1 sky130_fd_sc_hd__fill_1
XFILLER_26_53 vssd1 vssd1 vccd1 vccd1 sky130_ef_sc_hd__decap_12
XFILLER_26_97 vssd1 vssd1 vccd1 vccd1 sky130_ef_sc_hd__decap_12
X_293_ _045_ vssd1 vssd1 vccd1 vccd1 _033_ sky130_fd_sc_hd__inv_2
XFILLER_42_96 vssd1 vssd1 vccd1 vccd1 sky130_fd_sc_hd__decap_4
XFILLER_42_85 vssd1 vssd1 vccd1 vccd1 sky130_fd_sc_hd__fill_2
XFILLER_42_41 vssd1 vssd1 vccd1 vccd1 sky130_ef_sc_hd__decap_12
XFILLER_9_149 vssd1 vssd1 vccd1 vccd1 sky130_ef_sc_hd__decap_12
XFILLER_3_57 vssd1 vssd1 vccd1 vccd1 sky130_ef_sc_hd__decap_12
XFILLER_59_329 vssd1 vssd1 vccd1 vccd1 sky130_fd_sc_hd__decap_6
XFILLER_50_251 vssd1 vssd1 vccd1 vccd1 sky130_fd_sc_hd__fill_1
XFILLER_35_281 vssd1 vssd1 vccd1 vccd1 sky130_ef_sc_hd__decap_12
XFILLER_27_237 vssd1 vssd1 vccd1 vccd1 sky130_ef_sc_hd__decap_12
XANTENNA__308__CLK prog_clk vssd1 vssd1 vccd1 vccd1 sky130_fd_sc_hd__diode_2
XFILLER_12_77 vssd1 vssd1 vccd1 vccd1 sky130_fd_sc_hd__decap_6
XFILLER_58_384 vssd1 vssd1 vccd1 vccd1 sky130_fd_sc_hd__fill_2
XFILLER_37_30 vssd1 vssd1 vccd1 vccd1 sky130_ef_sc_hd__decap_12
X_276_ _043_ vssd1 vssd1 vccd1 vccd1 _018_ sky130_fd_sc_hd__inv_2
XFILLER_53_62 vssd1 vssd1 vccd1 vccd1 sky130_fd_sc_hd__decap_4
X_414_ mux_top_ipin_0.mux_2level_tapbuf_basis_input3_mem3_2_out _071_ vssd1 vssd1
+ vccd1 vccd1 mux_top_ipin_0.mux_2level_tapbuf_basis_input3_mem3_3_out sky130_fd_sc_hd__ebufn_2
XFILLER_49_373 vssd1 vssd1 vccd1 vccd1 sky130_ef_sc_hd__decap_12
XFILLER_64_365 vssd1 vssd1 vccd1 vccd1 sky130_fd_sc_hd__decap_3
XFILLER_64_343 vssd1 vssd1 vccd1 vccd1 sky130_fd_sc_hd__decap_8
XFILLER_17_281 vssd1 vssd1 vccd1 vccd1 sky130_ef_sc_hd__decap_12
XFILLER_32_251 vssd1 vssd1 vccd1 vccd1 sky130_fd_sc_hd__fill_1
XFILLER_58_29 vssd1 vssd1 vccd1 vccd1 sky130_fd_sc_hd__fill_2
XFILLER_59_148 vssd1 vssd1 vccd1 vccd1 sky130_fd_sc_hd__decap_4
XFILLER_23_273 vssd1 vssd1 vccd1 vccd1 sky130_fd_sc_hd__decap_6
XFILLER_2_133 vssd1 vssd1 vccd1 vccd1 sky130_fd_sc_hd__decap_6
XFILLER_64_83 vssd1 vssd1 vccd1 vccd1 sky130_fd_sc_hd__fill_1
XFILLER_61_335 vssd1 vssd1 vccd1 vccd1 sky130_fd_sc_hd__fill_1
XFILLER_46_365 vssd1 vssd1 vccd1 vccd1 sky130_ef_sc_hd__decap_12
XFILLER_46_321 vssd1 vssd1 vccd1 vccd1 sky130_ef_sc_hd__decap_12
X_328_ prog_clk mem_top_ipin_2.DFFR_2_.Q _026_ vssd1 vssd1 vccd1 vccd1 mem_top_ipin_2.DFFR_3_.Q
+ sky130_fd_sc_hd__dfrtp_1
X_259_ _042_ vssd1 vssd1 vccd1 vccd1 _002_ sky130_fd_sc_hd__inv_2
XFILLER_9_45 vssd1 vssd1 vccd1 vccd1 sky130_fd_sc_hd__decap_8
XFILLER_14_251 vssd1 vssd1 vccd1 vccd1 sky130_fd_sc_hd__fill_1
XFILLER_43_3 vssd1 vssd1 vccd1 vccd1 sky130_ef_sc_hd__decap_12
XFILLER_64_195 vssd1 vssd1 vccd1 vccd1 sky130_fd_sc_hd__fill_1
XFILLER_64_184 vssd1 vssd1 vccd1 vccd1 sky130_fd_sc_hd__fill_1
XFILLER_52_357 vssd1 vssd1 vccd1 vccd1 sky130_fd_sc_hd__decap_6
XFILLER_20_221 vssd1 vssd1 vccd1 vccd1 sky130_ef_sc_hd__decap_12
XFILLER_20_265 vssd1 vssd1 vccd1 vccd1 sky130_ef_sc_hd__decap_12
XFILLER_43_335 vssd1 vssd1 vccd1 vccd1 sky130_fd_sc_hd__fill_1
XFILLER_28_365 vssd1 vssd1 vccd1 vccd1 sky130_ef_sc_hd__decap_12
XFILLER_28_321 vssd1 vssd1 vccd1 vccd1 sky130_ef_sc_hd__decap_12
XFILLER_18_65 vssd1 vssd1 vccd1 vccd1 sky130_ef_sc_hd__decap_12
XFILLER_50_41 vssd1 vssd1 vccd1 vccd1 sky130_fd_sc_hd__decap_4
XFILLER_34_97 vssd1 vssd1 vccd1 vccd1 sky130_ef_sc_hd__decap_12
XFILLER_34_53 vssd1 vssd1 vccd1 vccd1 sky130_ef_sc_hd__decap_12
XFILLER_7_225 vssd1 vssd1 vccd1 vccd1 sky130_ef_sc_hd__decap_12
XFILLER_59_50 vssd1 vssd1 vccd1 vccd1 sky130_fd_sc_hd__decap_6
XTAP_519 vssd1 vccd1 sky130_fd_sc_hd__tapvpwrvgnd_1
XTAP_508 vssd1 vccd1 sky130_fd_sc_hd__tapvpwrvgnd_1
XFILLER_50_85 vssd1 vssd1 vccd1 vccd1 sky130_fd_sc_hd__fill_2
XFILLER_38_129 vssd1 vssd1 vccd1 vccd1 sky130_fd_sc_hd__decap_4
XFILLER_61_143 vssd1 vssd1 vccd1 vccd1 sky130_fd_sc_hd__decap_4
XFILLER_61_110 vssd1 vssd1 vccd1 vccd1 sky130_fd_sc_hd__fill_2
XFILLER_37_173 vssd1 vssd1 vccd1 vccd1 sky130_ef_sc_hd__decap_12
XFILLER_25_335 vssd1 vssd1 vccd1 vccd1 sky130_fd_sc_hd__fill_1
XFILLER_52_165 vssd1 vssd1 vccd1 vccd1 sky130_ef_sc_hd__decap_12
XFILLER_20_22 vssd1 vssd1 vccd1 vccd1 sky130_fd_sc_hd__decap_6
XFILLER_20_77 vssd1 vssd1 vccd1 vccd1 sky130_fd_sc_hd__decap_6
XFILLER_29_53 vssd1 vssd1 vccd1 vccd1 sky130_fd_sc_hd__decap_3
XFILLER_45_96 vssd1 vssd1 vccd1 vccd1 sky130_fd_sc_hd__decap_4
XFILLER_43_132 vssd1 vssd1 vccd1 vccd1 sky130_fd_sc_hd__decap_6
XFILLER_43_110 vssd1 vssd1 vccd1 vccd1 sky130_fd_sc_hd__fill_2
XFILLER_31_349 vssd1 vssd1 vccd1 vccd1 sky130_ef_sc_hd__decap_12
XFILLER_31_305 vssd1 vssd1 vccd1 vccd1 sky130_ef_sc_hd__decap_12
XFILLER_28_195 vssd1 vssd1 vccd1 vccd1 sky130_fd_sc_hd__fill_1
XFILLER_16_357 vssd1 vssd1 vccd1 vccd1 sky130_fd_sc_hd__decap_6
XTAP_349 vssd1 vccd1 sky130_fd_sc_hd__tapvpwrvgnd_1
XTAP_338 vssd1 vccd1 sky130_fd_sc_hd__tapvpwrvgnd_1
XTAP_327 vssd1 vccd1 sky130_fd_sc_hd__tapvpwrvgnd_1
XFILLER_3_261 vssd1 vssd1 vccd1 vccd1 sky130_ef_sc_hd__decap_12
XTAP_305 vssd1 vccd1 sky130_fd_sc_hd__tapvpwrvgnd_1
XTAP_316 vssd1 vccd1 sky130_fd_sc_hd__tapvpwrvgnd_1
XFILLER_34_121 vssd1 vssd1 vccd1 vccd1 sky130_fd_sc_hd__decap_8
XANTENNA__341__CLK prog_clk vssd1 vssd1 vccd1 vccd1 sky130_fd_sc_hd__diode_2
XFILLER_57_279 vssd1 vssd1 vccd1 vccd1 sky130_fd_sc_hd__fill_1
XFILLER_13_305 vssd1 vssd1 vccd1 vccd1 sky130_ef_sc_hd__decap_12
XFILLER_13_349 vssd1 vssd1 vccd1 vccd1 sky130_ef_sc_hd__decap_12
XFILLER_15_33 vssd1 vssd1 vccd1 vccd1 sky130_ef_sc_hd__decap_12
XFILLER_25_165 vssd1 vssd1 vccd1 vccd1 sky130_fd_sc_hd__decap_3
XFILLER_40_179 vssd1 vssd1 vccd1 vccd1 sky130_fd_sc_hd__decap_4
Xoutput65 net65 vssd1 vssd1 vccd1 vccd1 chanx_right_out[0] sky130_fd_sc_hd__buf_2
Xoutput76 net76 vssd1 vssd1 vccd1 vccd1 chanx_right_out[2] sky130_fd_sc_hd__buf_2
XANTENNA__233__A net39 vssd1 vssd1 vccd1 vccd1 sky130_fd_sc_hd__diode_2
XFILLER_0_253 vssd1 vssd1 vccd1 vccd1 sky130_fd_sc_hd__fill_2
XFILLER_0_231 vssd1 vssd1 vccd1 vccd1 sky130_ef_sc_hd__decap_12
Xoutput54 net54 vssd1 vssd1 vccd1 vccd1 chanx_left_out[17] sky130_fd_sc_hd__buf_2
Xoutput43 net43 vssd1 vssd1 vccd1 vccd1 bottom_grid_top_width_0_height_0_subtile_0__pin_I_8_
+ sky130_fd_sc_hd__buf_2
XFILLER_63_249 vssd1 vssd1 vccd1 vccd1 sky130_ef_sc_hd__decap_12
XANTENNA_input30_A chanx_right_in[18] vssd1 vssd1 vccd1 vccd1 sky130_fd_sc_hd__diode_2
XFILLER_16_121 vssd1 vssd1 vccd1 vccd1 sky130_ef_sc_hd__decap_12
XFILLER_31_113 vssd1 vssd1 vccd1 vccd1 sky130_ef_sc_hd__decap_12
XFILLER_16_165 vssd1 vssd1 vccd1 vccd1 sky130_ef_sc_hd__decap_12
XFILLER_39_246 vssd1 vssd1 vccd1 vccd1 sky130_ef_sc_hd__decap_12
XTAP_168 vssd1 vccd1 sky130_fd_sc_hd__tapvpwrvgnd_1
XTAP_157 vssd1 vccd1 sky130_fd_sc_hd__tapvpwrvgnd_1
XTAP_146 vssd1 vccd1 sky130_fd_sc_hd__tapvpwrvgnd_1
XTAP_135 vssd1 vccd1 sky130_fd_sc_hd__tapvpwrvgnd_1
XTAP_179 vssd1 vccd1 sky130_fd_sc_hd__tapvpwrvgnd_1
XFILLER_45_249 vssd1 vssd1 vccd1 vccd1 sky130_ef_sc_hd__decap_12
XFILLER_53_293 vssd1 vssd1 vccd1 vccd1 sky130_ef_sc_hd__decap_12
X_292_ _045_ vssd1 vssd1 vccd1 vccd1 _032_ sky130_fd_sc_hd__inv_2
X_430_ mux_top_ipin_1.INVTX1_5_.out _087_ vssd1 vssd1 vccd1 vccd1 mux_top_ipin_1.mux_2level_tapbuf_basis_input3_mem3_1_out
+ sky130_fd_sc_hd__ebufn_2
XFILLER_42_53 vssd1 vssd1 vccd1 vccd1 sky130_ef_sc_hd__decap_12
X_361_ net38 vssd1 vssd1 vccd1 vccd1 net63 sky130_fd_sc_hd__clkbuf_1
XFILLER_13_113 vssd1 vssd1 vccd1 vccd1 sky130_ef_sc_hd__decap_12
XFILLER_26_65 vssd1 vssd1 vccd1 vccd1 sky130_ef_sc_hd__decap_12
XFILLER_3_69 vssd1 vssd1 vccd1 vccd1 sky130_ef_sc_hd__decap_12
XFILLER_27_205 vssd1 vssd1 vccd1 vccd1 sky130_ef_sc_hd__decap_12
XFILLER_27_249 vssd1 vssd1 vccd1 vccd1 sky130_ef_sc_hd__decap_12
XFILLER_35_293 vssd1 vssd1 vccd1 vccd1 sky130_ef_sc_hd__decap_12
XFILLER_6_109 vssd1 vssd1 vccd1 vccd1 sky130_ef_sc_hd__decap_12
XFILLER_58_363 vssd1 vssd1 vccd1 vccd1 sky130_fd_sc_hd__fill_1
X_413_ mux_top_ipin_0.mux_2level_tapbuf_basis_input3_mem3_1_out _070_ vssd1 vssd1
+ vccd1 vccd1 mux_top_ipin_0.mux_2level_tapbuf_basis_input3_mem3_3_out sky130_fd_sc_hd__ebufn_2
XFILLER_37_42 vssd1 vssd1 vccd1 vccd1 sky130_ef_sc_hd__decap_12
X_275_ _043_ vssd1 vssd1 vccd1 vccd1 _017_ sky130_fd_sc_hd__inv_2
XFILLER_64_322 vssd1 vssd1 vccd1 vccd1 sky130_ef_sc_hd__decap_12
XFILLER_49_385 vssd1 vssd1 vccd1 vccd1 sky130_fd_sc_hd__fill_1
XFILLER_1_370 vssd1 vssd1 vccd1 vccd1 sky130_fd_sc_hd__decap_4
XFILLER_17_293 vssd1 vssd1 vccd1 vccd1 sky130_ef_sc_hd__decap_12
XFILLER_23_55 vssd1 vssd1 vccd1 vccd1 sky130_fd_sc_hd__fill_1
XFILLER_3_3 vssd1 vssd1 vccd1 vccd1 sky130_ef_sc_hd__decap_12
XFILLER_48_85 vssd1 vssd1 vccd1 vccd1 sky130_fd_sc_hd__decap_4
XFILLER_48_41 vssd1 vssd1 vccd1 vccd1 sky130_fd_sc_hd__decap_4
XFILLER_46_333 vssd1 vssd1 vccd1 vccd1 sky130_ef_sc_hd__decap_12
XFILLER_0_26 vssd1 vssd1 vccd1 vccd1 sky130_fd_sc_hd__fill_2
XFILLER_46_377 vssd1 vssd1 vccd1 vccd1 sky130_fd_sc_hd__decap_4
XFILLER_0_37 vssd1 vssd1 vccd1 vccd1 sky130_fd_sc_hd__fill_1
X_327_ prog_clk mem_top_ipin_2.DFFR_3_.Q _025_ vssd1 vssd1 vccd1 vccd1 mem_top_ipin_2.DFFR_4_.Q
+ sky130_fd_sc_hd__dfrtp_1
X_258_ _042_ vssd1 vssd1 vccd1 vccd1 _001_ sky130_fd_sc_hd__inv_2
X_189_ mem_top_ipin_0.DFFR_2_.Q vssd1 vssd1 vccd1 vccd1 _075_ sky130_fd_sc_hd__inv_2
XFILLER_9_57 vssd1 vssd1 vccd1 vccd1 sky130_ef_sc_hd__decap_12
XFILLER_36_3 vssd1 vssd1 vccd1 vccd1 sky130_ef_sc_hd__decap_12
XFILLER_64_174 vssd1 vssd1 vccd1 vccd1 sky130_fd_sc_hd__decap_4
XFILLER_64_141 vssd1 vssd1 vccd1 vccd1 sky130_fd_sc_hd__fill_2
XFILLER_56_108 vssd1 vssd1 vccd1 vccd1 sky130_fd_sc_hd__decap_4
XFILLER_49_193 vssd1 vssd1 vccd1 vccd1 sky130_ef_sc_hd__decap_12
XFILLER_20_233 vssd1 vssd1 vccd1 vccd1 sky130_ef_sc_hd__decap_12
XFILLER_20_277 vssd1 vssd1 vccd1 vccd1 sky130_ef_sc_hd__decap_12
XFILLER_28_333 vssd1 vssd1 vccd1 vccd1 sky130_ef_sc_hd__decap_12
XFILLER_55_130 vssd1 vssd1 vccd1 vccd1 sky130_fd_sc_hd__decap_4
XFILLER_28_377 vssd1 vssd1 vccd1 vccd1 sky130_fd_sc_hd__decap_8
XFILLER_18_77 vssd1 vssd1 vccd1 vccd1 sky130_fd_sc_hd__decap_6
XANTENNA__236__A net14 vssd1 vssd1 vccd1 vccd1 sky130_fd_sc_hd__diode_2
XFILLER_34_65 vssd1 vssd1 vccd1 vccd1 sky130_ef_sc_hd__decap_12
XFILLER_7_237 vssd1 vssd1 vccd1 vccd1 sky130_ef_sc_hd__decap_12
XFILLER_59_62 vssd1 vssd1 vccd1 vccd1 sky130_fd_sc_hd__decap_4
XTAP_509 vssd1 vccd1 sky130_fd_sc_hd__tapvpwrvgnd_1
XFILLER_46_185 vssd1 vssd1 vccd1 vccd1 sky130_fd_sc_hd__decap_4
XFILLER_46_152 vssd1 vssd1 vccd1 vccd1 sky130_fd_sc_hd__decap_4
XFILLER_46_141 vssd1 vssd1 vccd1 vccd1 sky130_fd_sc_hd__fill_2
XFILLER_22_9 vssd1 vssd1 vccd1 vccd1 sky130_ef_sc_hd__decap_12
XFILLER_61_155 vssd1 vssd1 vccd1 vccd1 sky130_fd_sc_hd__decap_4
XFILLER_52_177 vssd1 vssd1 vccd1 vccd1 sky130_ef_sc_hd__decap_12
XFILLER_37_185 vssd1 vssd1 vccd1 vccd1 sky130_ef_sc_hd__decap_12
XFILLER_37_163 vssd1 vssd1 vccd1 vccd1 sky130_fd_sc_hd__decap_4
XFILLER_45_31 vssd1 vssd1 vccd1 vccd1 sky130_fd_sc_hd__decap_4
XFILLER_29_21 vssd1 vssd1 vccd1 vccd1 sky130_ef_sc_hd__decap_12
XFILLER_28_141 vssd1 vssd1 vccd1 vccd1 sky130_ef_sc_hd__decap_12
XFILLER_45_75 vssd1 vssd1 vccd1 vccd1 sky130_fd_sc_hd__decap_4
XFILLER_43_177 vssd1 vssd1 vccd1 vccd1 sky130_fd_sc_hd__decap_4
XFILLER_31_317 vssd1 vssd1 vccd1 vccd1 sky130_ef_sc_hd__decap_12
XTAP_339 vssd1 vccd1 sky130_fd_sc_hd__tapvpwrvgnd_1
XTAP_328 vssd1 vccd1 sky130_fd_sc_hd__tapvpwrvgnd_1
XTAP_317 vssd1 vccd1 sky130_fd_sc_hd__tapvpwrvgnd_1
XFILLER_3_273 vssd1 vssd1 vccd1 vccd1 sky130_fd_sc_hd__decap_6
XTAP_306 vssd1 vccd1 sky130_fd_sc_hd__tapvpwrvgnd_1
XFILLER_57_225 vssd1 vssd1 vccd1 vccd1 sky130_ef_sc_hd__decap_12
XFILLER_13_317 vssd1 vssd1 vccd1 vccd1 sky130_ef_sc_hd__decap_12
XFILLER_15_45 vssd1 vssd1 vccd1 vccd1 sky130_fd_sc_hd__decap_8
XFILLER_25_111 vssd1 vssd1 vccd1 vccd1 sky130_fd_sc_hd__fill_1
XFILLER_25_133 vssd1 vssd1 vccd1 vccd1 sky130_fd_sc_hd__decap_3
XFILLER_31_55 vssd1 vssd1 vccd1 vccd1 sky130_fd_sc_hd__fill_1
XFILLER_21_361 vssd1 vssd1 vccd1 vccd1 sky130_ef_sc_hd__decap_12
Xoutput66 net66 vssd1 vssd1 vccd1 vccd1 chanx_right_out[10] sky130_fd_sc_hd__buf_2
Xoutput55 net55 vssd1 vssd1 vccd1 vccd1 chanx_left_out[18] sky130_fd_sc_hd__buf_2
Xoutput77 net77 vssd1 vssd1 vccd1 vccd1 chanx_right_out[3] sky130_fd_sc_hd__buf_2
XFILLER_0_287 vssd1 vssd1 vccd1 vccd1 sky130_ef_sc_hd__decap_12
Xoutput44 net44 vssd1 vssd1 vccd1 vccd1 bottom_grid_top_width_0_height_0_subtile_0__pin_clk_0_
+ sky130_fd_sc_hd__buf_2
XFILLER_0_265 vssd1 vssd1 vccd1 vccd1 sky130_fd_sc_hd__decap_4
XFILLER_0_243 vssd1 vssd1 vccd1 vccd1 sky130_fd_sc_hd__decap_4
XFILLER_0_210 vssd1 vssd1 vccd1 vccd1 sky130_fd_sc_hd__decap_4
XFILLER_56_85 vssd1 vssd1 vccd1 vccd1 sky130_fd_sc_hd__fill_2
XANTENNA_input23_A chanx_right_in[11] vssd1 vssd1 vccd1 vccd1 sky130_fd_sc_hd__diode_2
XFILLER_16_133 vssd1 vssd1 vccd1 vccd1 sky130_fd_sc_hd__decap_6
XFILLER_31_169 vssd1 vssd1 vccd1 vccd1 sky130_ef_sc_hd__decap_12
XFILLER_31_125 vssd1 vssd1 vccd1 vccd1 sky130_ef_sc_hd__decap_12
XFILLER_8_321 vssd1 vssd1 vccd1 vccd1 sky130_ef_sc_hd__decap_12
XFILLER_16_177 vssd1 vssd1 vccd1 vccd1 sky130_ef_sc_hd__decap_12
XFILLER_8_365 vssd1 vssd1 vccd1 vccd1 sky130_ef_sc_hd__decap_12
XFILLER_39_258 vssd1 vssd1 vccd1 vccd1 sky130_ef_sc_hd__decap_12
XFILLER_39_225 vssd1 vssd1 vccd1 vccd1 sky130_fd_sc_hd__decap_4
XTAP_169 vssd1 vccd1 sky130_fd_sc_hd__tapvpwrvgnd_1
XTAP_158 vssd1 vccd1 sky130_fd_sc_hd__tapvpwrvgnd_1
XTAP_147 vssd1 vccd1 sky130_fd_sc_hd__tapvpwrvgnd_1
XTAP_136 vssd1 vccd1 sky130_fd_sc_hd__tapvpwrvgnd_1
XFILLER_10_309 vssd1 vssd1 vccd1 vccd1 sky130_ef_sc_hd__decap_12
XFILLER_60_209 vssd1 vssd1 vccd1 vccd1 sky130_ef_sc_hd__decap_12
XFILLER_53_261 vssd1 vssd1 vccd1 vccd1 sky130_ef_sc_hd__decap_12
X_291_ _045_ vssd1 vssd1 vccd1 vccd1 _031_ sky130_fd_sc_hd__inv_2
XFILLER_42_65 vssd1 vssd1 vccd1 vccd1 sky130_ef_sc_hd__decap_12
X_360_ net39 vssd1 vssd1 vccd1 vccd1 net64 sky130_fd_sc_hd__clkbuf_2
XFILLER_13_125 vssd1 vssd1 vccd1 vccd1 sky130_ef_sc_hd__decap_12
XFILLER_13_169 vssd1 vssd1 vccd1 vccd1 sky130_ef_sc_hd__decap_12
XFILLER_26_77 vssd1 vssd1 vccd1 vccd1 sky130_fd_sc_hd__decap_6
XANTENNA__244__A net28 vssd1 vssd1 vccd1 vccd1 sky130_fd_sc_hd__diode_2
XFILLER_5_335 vssd1 vssd1 vccd1 vccd1 sky130_fd_sc_hd__fill_1
XFILLER_5_379 vssd1 vssd1 vccd1 vccd1 sky130_fd_sc_hd__fill_1
XFILLER_3_15 vssd1 vssd1 vccd1 vccd1 sky130_ef_sc_hd__decap_12
XANTENNA__331__CLK prog_clk vssd1 vssd1 vccd1 vccd1 sky130_fd_sc_hd__diode_2
XFILLER_51_209 vssd1 vssd1 vccd1 vccd1 sky130_ef_sc_hd__decap_12
XFILLER_8_195 vssd1 vssd1 vccd1 vccd1 sky130_fd_sc_hd__fill_1
XANTENNA__304__D mem_bottom_ipin_0.DFFR_2_.Q vssd1 vssd1 vccd1 vccd1 sky130_fd_sc_hd__diode_2
XFILLER_27_217 vssd1 vssd1 vccd1 vccd1 sky130_fd_sc_hd__decap_6
XFILLER_50_253 vssd1 vssd1 vccd1 vccd1 sky130_ef_sc_hd__decap_12
XFILLER_35_261 vssd1 vssd1 vccd1 vccd1 sky130_ef_sc_hd__decap_12
XFILLER_10_139 vssd1 vssd1 vccd1 vccd1 sky130_fd_sc_hd__fill_1
XANTENNA__239__A net9 vssd1 vssd1 vccd1 vccd1 sky130_fd_sc_hd__diode_2
X_412_ mux_bottom_ipin_0.INVTX1_0_.out _069_ vssd1 vssd1 vccd1 vccd1 mux_bottom_ipin_1.mux_2level_tapbuf_basis_input3_mem3_0_out
+ sky130_fd_sc_hd__ebufn_2
XFILLER_37_54 vssd1 vssd1 vccd1 vccd1 sky130_fd_sc_hd__fill_2
X_343_ prog_clk mem_bottom_ipin_1.DFFR_5_.Q _041_ vssd1 vssd1 vccd1 vccd1 mem_bottom_ipin_2.DFFR_0_.Q
+ sky130_fd_sc_hd__dfrtp_2
X_274_ _043_ vssd1 vssd1 vccd1 vccd1 _016_ sky130_fd_sc_hd__inv_2
XFILLER_52_9 vssd1 vssd1 vccd1 vccd1 sky130_fd_sc_hd__decap_4
XFILLER_64_334 vssd1 vssd1 vccd1 vccd1 sky130_fd_sc_hd__fill_2
XFILLER_64_301 vssd1 vssd1 vccd1 vccd1 sky130_fd_sc_hd__decap_6
XANTENNA__149__A mem_top_ipin_3.DFFR_2_.Q vssd1 vssd1 vccd1 vccd1 sky130_fd_sc_hd__diode_2
XFILLER_24_209 vssd1 vssd1 vccd1 vccd1 sky130_ef_sc_hd__decap_12
XFILLER_64_378 vssd1 vssd1 vccd1 vccd1 sky130_fd_sc_hd__decap_8
XFILLER_32_253 vssd1 vssd1 vccd1 vccd1 sky130_ef_sc_hd__decap_12
XFILLER_17_261 vssd1 vssd1 vccd1 vccd1 sky130_ef_sc_hd__decap_12
XFILLER_59_106 vssd1 vssd1 vccd1 vccd1 sky130_fd_sc_hd__fill_1
XFILLER_48_53 vssd1 vssd1 vccd1 vccd1 sky130_fd_sc_hd__decap_4
XFILLER_46_345 vssd1 vssd1 vccd1 vccd1 sky130_ef_sc_hd__decap_12
XFILLER_0_16 vssd1 vssd1 vccd1 vccd1 sky130_fd_sc_hd__decap_6
XFILLER_64_85 vssd1 vssd1 vccd1 vccd1 sky130_fd_sc_hd__fill_2
XFILLER_61_337 vssd1 vssd1 vccd1 vccd1 sky130_ef_sc_hd__decap_12
X_326_ prog_clk mem_top_ipin_2.DFFR_4_.Q _024_ vssd1 vssd1 vccd1 vccd1 mem_top_ipin_2.DFFR_5_.Q
+ sky130_fd_sc_hd__dfrtp_1
XFILLER_9_69 vssd1 vssd1 vccd1 vccd1 sky130_ef_sc_hd__decap_12
XFILLER_14_253 vssd1 vssd1 vccd1 vccd1 sky130_ef_sc_hd__decap_12
X_257_ _042_ vssd1 vssd1 vccd1 vccd1 _000_ sky130_fd_sc_hd__inv_2
X_188_ mem_top_ipin_0.DFFR_0_.Q vssd1 vssd1 vccd1 vccd1 _080_ sky130_fd_sc_hd__inv_2
XFILLER_29_3 vssd1 vssd1 vccd1 vccd1 sky130_fd_sc_hd__fill_2
XFILLER_64_197 vssd1 vssd1 vccd1 vccd1 sky130_fd_sc_hd__decap_8
XFILLER_64_153 vssd1 vssd1 vccd1 vccd1 sky130_fd_sc_hd__decap_4
XFILLER_20_245 vssd1 vssd1 vccd1 vccd1 sky130_fd_sc_hd__decap_6
XFILLER_20_289 vssd1 vssd1 vccd1 vccd1 sky130_ef_sc_hd__decap_12
XFILLER_28_345 vssd1 vssd1 vccd1 vccd1 sky130_ef_sc_hd__decap_12
XFILLER_28_301 vssd1 vssd1 vccd1 vccd1 sky130_fd_sc_hd__decap_6