* NGSPICE file created from sb_1__0_.ext - technology: sky130A

* Black-box entry subcircuit for sky130_fd_sc_hd__decap_3 abstract view
.subckt sky130_fd_sc_hd__decap_3 VGND VNB VPB VPWR
.ends

* Black-box entry subcircuit for sky130_fd_sc_hd__tapvpwrvgnd_1 abstract view
.subckt sky130_fd_sc_hd__tapvpwrvgnd_1 VGND VPWR
.ends

* Black-box entry subcircuit for sky130_ef_sc_hd__decap_12 abstract view
.subckt sky130_ef_sc_hd__decap_12 VGND VNB VPB VPWR
.ends

* Black-box entry subcircuit for sky130_fd_sc_hd__decap_6 abstract view
.subckt sky130_fd_sc_hd__decap_6 VGND VNB VPB VPWR
.ends

* Black-box entry subcircuit for sky130_fd_sc_hd__fill_2 abstract view
.subckt sky130_fd_sc_hd__fill_2 VGND VNB VPB VPWR
.ends

* Black-box entry subcircuit for sky130_fd_sc_hd__inv_2 abstract view
.subckt sky130_fd_sc_hd__inv_2 A VGND VNB VPB VPWR Y
.ends

* Black-box entry subcircuit for sky130_fd_sc_hd__buf_4 abstract view
.subckt sky130_fd_sc_hd__buf_4 A VGND VNB VPB VPWR X
.ends

* Black-box entry subcircuit for sky130_fd_sc_hd__ebufn_2 abstract view
.subckt sky130_fd_sc_hd__ebufn_2 A TE_B VGND VNB VPB VPWR Z
.ends

* Black-box entry subcircuit for sky130_fd_sc_hd__dfrtp_2 abstract view
.subckt sky130_fd_sc_hd__dfrtp_2 CLK D RESET_B VGND VNB VPB VPWR Q
.ends

* Black-box entry subcircuit for sky130_fd_sc_hd__decap_4 abstract view
.subckt sky130_fd_sc_hd__decap_4 VGND VNB VPB VPWR
.ends

* Black-box entry subcircuit for sky130_fd_sc_hd__fill_1 abstract view
.subckt sky130_fd_sc_hd__fill_1 VGND VNB VPB VPWR
.ends

* Black-box entry subcircuit for sky130_fd_sc_hd__ebufn_4 abstract view
.subckt sky130_fd_sc_hd__ebufn_4 A TE_B VGND VNB VPB VPWR Z
.ends

* Black-box entry subcircuit for sky130_fd_sc_hd__ebufn_1 abstract view
.subckt sky130_fd_sc_hd__ebufn_1 A TE_B VGND VNB VPB VPWR Z
.ends

* Black-box entry subcircuit for sky130_fd_sc_hd__decap_8 abstract view
.subckt sky130_fd_sc_hd__decap_8 VGND VNB VPB VPWR
.ends

* Black-box entry subcircuit for sky130_fd_sc_hd__clkbuf_1 abstract view
.subckt sky130_fd_sc_hd__clkbuf_1 A VGND VNB VPB VPWR X
.ends

* Black-box entry subcircuit for sky130_fd_sc_hd__conb_1 abstract view
.subckt sky130_fd_sc_hd__conb_1 VGND VNB VPB VPWR HI LO
.ends

* Black-box entry subcircuit for sky130_fd_sc_hd__diode_2 abstract view
.subckt sky130_fd_sc_hd__diode_2 DIODE VGND VNB VPB VPWR
.ends

* Black-box entry subcircuit for sky130_fd_sc_hd__buf_2 abstract view
.subckt sky130_fd_sc_hd__buf_2 A VGND VNB VPB VPWR X
.ends

* Black-box entry subcircuit for sky130_fd_sc_hd__clkbuf_8 abstract view
.subckt sky130_fd_sc_hd__clkbuf_8 A VGND VNB VPB VPWR X
.ends

* Black-box entry subcircuit for sky130_fd_sc_hd__dfrtp_1 abstract view
.subckt sky130_fd_sc_hd__dfrtp_1 CLK D RESET_B VGND VNB VPB VPWR Q
.ends

* Black-box entry subcircuit for sky130_fd_sc_hd__clkbuf_2 abstract view
.subckt sky130_fd_sc_hd__clkbuf_2 A VGND VNB VPB VPWR X
.ends

* Black-box entry subcircuit for sky130_fd_sc_hd__clkinv_2 abstract view
.subckt sky130_fd_sc_hd__clkinv_2 A VGND VNB VPB VPWR Y
.ends

* Black-box entry subcircuit for sky130_fd_sc_hd__dfrtp_4 abstract view
.subckt sky130_fd_sc_hd__dfrtp_4 CLK D RESET_B VGND VNB VPB VPWR Q
.ends

* Black-box entry subcircuit for sky130_fd_sc_hd__buf_6 abstract view
.subckt sky130_fd_sc_hd__buf_6 A VGND VNB VPB VPWR X
.ends

* Black-box entry subcircuit for sky130_fd_sc_hd__ebufn_8 abstract view
.subckt sky130_fd_sc_hd__ebufn_8 A TE_B VGND VNB VPB VPWR Z
.ends

* Black-box entry subcircuit for sky130_fd_sc_hd__clkbuf_4 abstract view
.subckt sky130_fd_sc_hd__clkbuf_4 A VGND VNB VPB VPWR X
.ends

* Black-box entry subcircuit for sky130_fd_sc_hd__dlymetal6s2s_1 abstract view
.subckt sky130_fd_sc_hd__dlymetal6s2s_1 A VGND VNB VPB VPWR X
.ends

* Black-box entry subcircuit for sky130_fd_sc_hd__clkbuf_16 abstract view
.subckt sky130_fd_sc_hd__clkbuf_16 A VGND VNB VPB VPWR X
.ends

.subckt sb_1__0_ ccff_head ccff_tail chanx_left_in[0] chanx_left_in[10] chanx_left_in[11]
+ chanx_left_in[12] chanx_left_in[13] chanx_left_in[14] chanx_left_in[15] chanx_left_in[16]
+ chanx_left_in[17] chanx_left_in[18] chanx_left_in[1] chanx_left_in[2] chanx_left_in[3]
+ chanx_left_in[4] chanx_left_in[5] chanx_left_in[6] chanx_left_in[7] chanx_left_in[8]
+ chanx_left_in[9] chanx_left_out[0] chanx_left_out[10] chanx_left_out[11] chanx_left_out[12]
+ chanx_left_out[13] chanx_left_out[14] chanx_left_out[15] chanx_left_out[16] chanx_left_out[17]
+ chanx_left_out[18] chanx_left_out[1] chanx_left_out[2] chanx_left_out[3] chanx_left_out[4]
+ chanx_left_out[5] chanx_left_out[6] chanx_left_out[7] chanx_left_out[8] chanx_left_out[9]
+ chanx_right_in[0] chanx_right_in[10] chanx_right_in[11] chanx_right_in[12] chanx_right_in[13]
+ chanx_right_in[14] chanx_right_in[15] chanx_right_in[16] chanx_right_in[17] chanx_right_in[18]
+ chanx_right_in[1] chanx_right_in[2] chanx_right_in[3] chanx_right_in[4] chanx_right_in[5]
+ chanx_right_in[6] chanx_right_in[7] chanx_right_in[8] chanx_right_in[9] chanx_right_out[0]
+ chanx_right_out[10] chanx_right_out[11] chanx_right_out[12] chanx_right_out[13]
+ chanx_right_out[14] chanx_right_out[15] chanx_right_out[16] chanx_right_out[17]
+ chanx_right_out[18] chanx_right_out[1] chanx_right_out[2] chanx_right_out[3] chanx_right_out[4]
+ chanx_right_out[5] chanx_right_out[6] chanx_right_out[7] chanx_right_out[8] chanx_right_out[9]
+ chany_top_in[0] chany_top_in[10] chany_top_in[11] chany_top_in[12] chany_top_in[13]
+ chany_top_in[14] chany_top_in[15] chany_top_in[16] chany_top_in[17] chany_top_in[18]
+ chany_top_in[1] chany_top_in[2] chany_top_in[3] chany_top_in[4] chany_top_in[5]
+ chany_top_in[6] chany_top_in[7] chany_top_in[8] chany_top_in[9] chany_top_out[0]
+ chany_top_out[10] chany_top_out[11] chany_top_out[12] chany_top_out[13] chany_top_out[14]
+ chany_top_out[15] chany_top_out[16] chany_top_out[17] chany_top_out[18] chany_top_out[1]
+ chany_top_out[2] chany_top_out[3] chany_top_out[4] chany_top_out[5] chany_top_out[6]
+ chany_top_out[7] chany_top_out[8] chany_top_out[9] left_bottom_grid_top_width_0_height_0_subtile_0__pin_inpad_0_
+ left_bottom_grid_top_width_0_height_0_subtile_1__pin_inpad_0_ left_bottom_grid_top_width_0_height_0_subtile_2__pin_inpad_0_
+ left_bottom_grid_top_width_0_height_0_subtile_3__pin_inpad_0_ left_bottom_grid_top_width_0_height_0_subtile_4__pin_inpad_0_
+ left_bottom_grid_top_width_0_height_0_subtile_5__pin_inpad_0_ left_bottom_grid_top_width_0_height_0_subtile_6__pin_inpad_0_
+ left_bottom_grid_top_width_0_height_0_subtile_7__pin_inpad_0_ left_top_grid_bottom_width_0_height_0_subtile_0__pin_O_2_
+ left_top_grid_bottom_width_0_height_0_subtile_0__pin_O_6_ pReset prog_clk right_bottom_grid_top_width_0_height_0_subtile_0__pin_inpad_0_
+ right_bottom_grid_top_width_0_height_0_subtile_1__pin_inpad_0_ right_bottom_grid_top_width_0_height_0_subtile_2__pin_inpad_0_
+ right_bottom_grid_top_width_0_height_0_subtile_3__pin_inpad_0_ right_bottom_grid_top_width_0_height_0_subtile_4__pin_inpad_0_
+ right_bottom_grid_top_width_0_height_0_subtile_5__pin_inpad_0_ right_bottom_grid_top_width_0_height_0_subtile_6__pin_inpad_0_
+ right_bottom_grid_top_width_0_height_0_subtile_7__pin_inpad_0_ right_top_grid_bottom_width_0_height_0_subtile_0__pin_O_2_
+ right_top_grid_bottom_width_0_height_0_subtile_0__pin_O_6_ top_left_grid_right_width_0_height_0_subtile_0__pin_O_1_
+ top_left_grid_right_width_0_height_0_subtile_0__pin_O_5_ top_right_grid_left_width_0_height_0_subtile_0__pin_O_3_
+ top_right_grid_left_width_0_height_0_subtile_0__pin_O_7_ vccd1 vssd1 vssd1_uq0 vccd1_uq0
XFILLER_39_277 vssd1 vssd1 vccd1 vccd1 sky130_fd_sc_hd__decap_3
XTAP_177 vssd1 vccd1 sky130_fd_sc_hd__tapvpwrvgnd_1
XTAP_188 vssd1 vccd1 sky130_fd_sc_hd__tapvpwrvgnd_1
XTAP_199 vssd1 vccd1 sky130_fd_sc_hd__tapvpwrvgnd_1
XFILLER_52_29 vssd1 vssd1 vccd1 vccd1 sky130_ef_sc_hd__decap_12
XFILLER_22_133 vssd1 vssd1 vccd1 vccd1 sky130_fd_sc_hd__decap_6
XFILLER_60_239 vssd1 vssd1 vccd1 vccd1 sky130_ef_sc_hd__decap_12
XFILLER_45_225 vssd1 vssd1 vccd1 vccd1 sky130_fd_sc_hd__fill_2
XFILLER_26_85 vssd1 vssd1 vccd1 vccd1 sky130_ef_sc_hd__decap_12
XFILLER_26_41 vssd1 vssd1 vccd1 vccd1 sky130_ef_sc_hd__decap_12
XFILLER_42_95 vssd1 vssd1 vccd1 vccd1 sky130_ef_sc_hd__decap_12
XFILLER_9_137 vssd1 vssd1 vccd1 vccd1 sky130_ef_sc_hd__decap_12
X_0419_ mem_left_track_1.DFFR_1_.Q vssd1 vssd1 vccd1 vccd1 _0325_ sky130_fd_sc_hd__inv_2
XFILLER_27_225 vssd1 vssd1 vccd1 vccd1 sky130_fd_sc_hd__decap_3
XFILLER_2_357 vssd1 vssd1 vccd1 vccd1 sky130_fd_sc_hd__decap_6
XFILLER_12_65 vssd1 vssd1 vccd1 vccd1 sky130_ef_sc_hd__decap_12
X_0770_ _0152_ vssd1 vssd1 vccd1 vccd1 _0120_ sky130_fd_sc_hd__buf_4
XFILLER_56_309 vssd1 vssd1 vccd1 vccd1 sky130_ef_sc_hd__decap_12
XFILLER_1_390 vssd1 vssd1 vccd1 vccd1 sky130_fd_sc_hd__fill_2
XFILLER_49_361 vssd1 vssd1 vccd1 vccd1 sky130_ef_sc_hd__decap_12
X_1184_ mux_left_track_1.INVTX1_0_.out _0297_ vssd1 vssd1 vccd1 vccd1 mux_right_track_8.mux_2level_tapbuf_basis_input4_mem4_0_out
+ sky130_fd_sc_hd__ebufn_2
XFILLER_24_206 vssd1 vssd1 vccd1 vccd1 sky130_fd_sc_hd__decap_6
X_0899_ clknet_4_2_0_prog_clk mem_right_track_32.DFFR_1_.Q _0013_ vssd1 vssd1 vccd1
+ vccd1 mem_right_track_32.DFFR_2_.Q sky130_fd_sc_hd__dfrtp_2
XFILLER_59_169 vssd1 vssd1 vccd1 vccd1 sky130_fd_sc_hd__decap_6
XFILLER_23_272 vssd1 vssd1 vccd1 vccd1 sky130_fd_sc_hd__decap_3
XFILLER_15_217 vssd1 vssd1 vccd1 vccd1 sky130_fd_sc_hd__decap_6
XFILLER_7_405 vssd1 vssd1 vccd1 vccd1 sky130_fd_sc_hd__fill_2
XFILLER_38_309 vssd1 vssd1 vccd1 vccd1 sky130_fd_sc_hd__fill_2
XFILLER_2_165 vssd1 vssd1 vccd1 vccd1 sky130_ef_sc_hd__decap_12
XFILLER_2_121 vssd1 vssd1 vccd1 vccd1 sky130_ef_sc_hd__decap_12
XFILLER_64_82 vssd1 vssd1 vccd1 vccd1 sky130_fd_sc_hd__fill_2
XFILLER_46_331 vssd1 vssd1 vccd1 vccd1 sky130_fd_sc_hd__decap_4
XFILLER_0_57 vssd1 vssd1 vccd1 vccd1 sky130_fd_sc_hd__fill_2
X_0822_ _0124_ vssd1 vssd1 vccd1 vccd1 _0055_ sky130_fd_sc_hd__inv_2
XFILLER_9_55 vssd1 vssd1 vccd1 vccd1 sky130_fd_sc_hd__fill_1
XFILLER_14_283 vssd1 vssd1 vccd1 vccd1 sky130_ef_sc_hd__decap_12
XFILLER_50_3 vssd1 vssd1 vccd1 vccd1 sky130_fd_sc_hd__fill_2
X_0753_ _0118_ vssd1 vssd1 vccd1 vccd1 _0110_ sky130_fd_sc_hd__inv_2
X_0684_ net67 vssd1 vssd1 vccd1 vccd1 mux_left_track_1.INVTX1_7_.out sky130_fd_sc_hd__inv_2
X_1236_ mux_left_track_25.INVTX1_5_.out _0349_ vssd1 vssd1 vccd1 vccd1 mux_left_track_25.mux_2level_tapbuf_basis_input4_mem4_1_out
+ sky130_fd_sc_hd__ebufn_4
XFILLER_64_194 vssd1 vssd1 vccd1 vccd1 sky130_fd_sc_hd__fill_2
XFILLER_37_386 vssd1 vssd1 vccd1 vccd1 sky130_fd_sc_hd__decap_6
X_1167_ mux_left_track_33.INVTX1_1_.out _0280_ vssd1 vssd1 vccd1 vccd1 mux_left_track_33.mux_2level_tapbuf_basis_input3_mem3_0_out
+ sky130_fd_sc_hd__ebufn_2
X_1098_ mux_right_track_24.INVTX1_8_.out _0211_ vssd1 vssd1 vccd1 vccd1 mux_top_track_26.mux_2level_tapbuf_basis_input2_mem1_0_out
+ sky130_fd_sc_hd__ebufn_1
XFILLER_60_29 vssd1 vssd1 vccd1 vccd1 sky130_fd_sc_hd__decap_4
XFILLER_20_253 vssd1 vssd1 vccd1 vccd1 sky130_fd_sc_hd__decap_6
XFILLER_20_275 vssd1 vssd1 vccd1 vccd1 sky130_fd_sc_hd__decap_4
XFILLER_47_128 vssd1 vssd1 vccd1 vccd1 sky130_fd_sc_hd__decap_4
XFILLER_43_323 vssd1 vssd1 vccd1 vccd1 sky130_ef_sc_hd__decap_12
XFILLER_18_53 vssd1 vssd1 vccd1 vccd1 sky130_ef_sc_hd__decap_12
XFILLER_18_97 vssd1 vssd1 vccd1 vccd1 sky130_ef_sc_hd__decap_12
XFILLER_34_85 vssd1 vssd1 vccd1 vccd1 sky130_ef_sc_hd__decap_12
XFILLER_34_41 vssd1 vssd1 vccd1 vccd1 sky130_ef_sc_hd__decap_12
XFILLER_11_264 vssd1 vssd1 vccd1 vccd1 sky130_ef_sc_hd__decap_12
XTAP_507 vssd1 vccd1 sky130_fd_sc_hd__tapvpwrvgnd_1
XFILLER_7_279 vssd1 vssd1 vccd1 vccd1 sky130_fd_sc_hd__fill_1
XTAP_529 vssd1 vccd1 sky130_fd_sc_hd__tapvpwrvgnd_1
XTAP_518 vssd1 vccd1 sky130_fd_sc_hd__tapvpwrvgnd_1
XFILLER_61_131 vssd1 vssd1 vccd1 vccd1 sky130_fd_sc_hd__decap_8
XFILLER_46_172 vssd1 vssd1 vccd1 vccd1 sky130_ef_sc_hd__decap_12
X_1021_ mux_right_track_8.out vssd1 vssd1 vccd1 vccd1 net117 sky130_fd_sc_hd__clkbuf_1
XFILLER_19_342 vssd1 vssd1 vccd1 vccd1 sky130_fd_sc_hd__decap_4
X_0805_ _0123_ vssd1 vssd1 vccd1 vccd1 _0039_ sky130_fd_sc_hd__inv_2
X_0736_ _0155_ vssd1 vssd1 vccd1 vccd1 _0095_ sky130_fd_sc_hd__inv_2
X_0667_ net12 vssd1 vssd1 vccd1 vccd1 mux_right_track_8.INVTX1_6_.out sky130_fd_sc_hd__inv_2
X_0598_ mem_top_track_2.DFFR_5_.Q vssd1 vssd1 vccd1 vccd1 _0168_ sky130_fd_sc_hd__inv_2
X_1219_ mux_left_track_1.INVTX1_4_.out _0332_ vssd1 vssd1 vccd1 vccd1 mux_left_track_1.mux_2level_tapbuf_basis_input4_mem4_1_out
+ sky130_fd_sc_hd__ebufn_2
XFILLER_25_334 vssd1 vssd1 vccd1 vccd1 sky130_fd_sc_hd__fill_2
XFILLER_25_312 vssd1 vssd1 vccd1 vccd1 sky130_fd_sc_hd__decap_4
XFILLER_52_197 vssd1 vssd1 vccd1 vccd1 sky130_ef_sc_hd__decap_12
XFILLER_52_120 vssd1 vssd1 vccd1 vccd1 sky130_fd_sc_hd__decap_4
XFILLER_40_315 vssd1 vssd1 vccd1 vccd1 sky130_fd_sc_hd__fill_1
XFILLER_20_65 vssd1 vssd1 vccd1 vccd1 sky130_ef_sc_hd__decap_12
X_1152__159 vssd1 vssd1 vccd1 vccd1 net159 _1152__159/LO sky130_fd_sc_hd__conb_1
XFILLER_45_51 vssd1 vssd1 vccd1 vccd1 sky130_fd_sc_hd__decap_4
XFILLER_43_153 vssd1 vssd1 vccd1 vccd1 sky130_ef_sc_hd__decap_12
XFILLER_43_120 vssd1 vssd1 vccd1 vccd1 sky130_fd_sc_hd__decap_4
XFILLER_31_315 vssd1 vssd1 vccd1 vccd1 sky130_fd_sc_hd__decap_4
XFILLER_28_183 vssd1 vssd1 vccd1 vccd1 sky130_fd_sc_hd__decap_4
XFILLER_16_389 vssd1 vssd1 vccd1 vccd1 sky130_fd_sc_hd__decap_8
XFILLER_61_50 vssd1 vssd1 vccd1 vccd1 sky130_fd_sc_hd__decap_6
XFILLER_31_337 vssd1 vssd1 vccd1 vccd1 sky130_fd_sc_hd__fill_2
X_0452_ mem_right_track_8.DFFR_0_.Q vssd1 vssd1 vccd1 vccd1 _0296_ sky130_fd_sc_hd__inv_2
XANTENNA_5 mem_left_track_1.DFFR_0_.Q vssd1 vssd1 vccd1 vccd1 sky130_fd_sc_hd__diode_2
XTAP_348 vssd1 vccd1 sky130_fd_sc_hd__tapvpwrvgnd_1
XTAP_337 vssd1 vccd1 sky130_fd_sc_hd__tapvpwrvgnd_1
XTAP_326 vssd1 vccd1 sky130_fd_sc_hd__tapvpwrvgnd_1
XTAP_315 vssd1 vccd1 sky130_fd_sc_hd__tapvpwrvgnd_1
XTAP_304 vssd1 vccd1 sky130_fd_sc_hd__tapvpwrvgnd_1
XFILLER_3_293 vssd1 vssd1 vccd1 vccd1 sky130_ef_sc_hd__decap_12
X_0521_ _0131_ vssd1 vssd1 vccd1 vccd1 _0227_ sky130_fd_sc_hd__clkbuf_1
X_0383_ mem_top_track_0.DFFR_4_.Q vssd1 vssd1 vccd1 vccd1 _0157_ sky130_fd_sc_hd__inv_2
XTAP_359 vssd1 vccd1 sky130_fd_sc_hd__tapvpwrvgnd_1
XFILLER_13_3 vssd1 vssd1 vccd1 vccd1 sky130_ef_sc_hd__decap_12
XFILLER_34_197 vssd1 vssd1 vccd1 vccd1 sky130_ef_sc_hd__decap_12
XFILLER_34_153 vssd1 vssd1 vccd1 vccd1 sky130_ef_sc_hd__decap_12
X_1004_ net31 vssd1 vssd1 vccd1 vccd1 net96 sky130_fd_sc_hd__clkbuf_1
XFILLER_22_304 vssd1 vssd1 vccd1 vccd1 sky130_fd_sc_hd__decap_4
XFILLER_22_348 vssd1 vssd1 vccd1 vccd1 sky130_fd_sc_hd__fill_1
X_0719_ _0154_ vssd1 vssd1 vccd1 vccd1 _0079_ sky130_fd_sc_hd__inv_2
XFILLER_57_278 vssd1 vssd1 vccd1 vccd1 sky130_fd_sc_hd__fill_2
XFILLER_15_32 vssd1 vssd1 vccd1 vccd1 sky130_ef_sc_hd__decap_12
XFILLER_13_337 vssd1 vssd1 vccd1 vccd1 sky130_ef_sc_hd__decap_12
XFILLER_31_97 vssd1 vssd1 vccd1 vccd1 sky130_ef_sc_hd__decap_12
XFILLER_0_230 vssd1 vssd1 vccd1 vccd1 sky130_fd_sc_hd__decap_4
XFILLER_63_237 vssd1 vssd1 vccd1 vccd1 sky130_fd_sc_hd__decap_4
Xoutput86 net86 vssd1 vssd1 vccd1 vccd1 chanx_left_out[10] sky130_fd_sc_hd__buf_2
Xoutput97 net97 vssd1 vssd1 vccd1 vccd1 chanx_left_out[3] sky130_fd_sc_hd__buf_2
XFILLER_16_153 vssd1 vssd1 vccd1 vccd1 sky130_ef_sc_hd__decap_12
XFILLER_16_175 vssd1 vssd1 vccd1 vccd1 sky130_fd_sc_hd__fill_1
XFILLER_16_197 vssd1 vssd1 vccd1 vccd1 sky130_fd_sc_hd__fill_2
XFILLER_8_363 vssd1 vssd1 vccd1 vccd1 sky130_fd_sc_hd__fill_1
X_0504_ mem_right_track_0.DFFR_0_.D vssd1 vssd1 vccd1 vccd1 _0235_ sky130_fd_sc_hd__inv_2
X_0435_ mem_right_track_16.DFFR_2_.Q vssd1 vssd1 vccd1 vccd1 _0305_ sky130_fd_sc_hd__inv_2
XTAP_167 vssd1 vccd1 sky130_fd_sc_hd__tapvpwrvgnd_1
XTAP_156 vssd1 vccd1 sky130_fd_sc_hd__tapvpwrvgnd_1
XTAP_145 vssd1 vccd1 sky130_fd_sc_hd__tapvpwrvgnd_1
XTAP_134 vssd1 vccd1 sky130_fd_sc_hd__tapvpwrvgnd_1
XTAP_178 vssd1 vccd1 sky130_fd_sc_hd__tapvpwrvgnd_1
XTAP_189 vssd1 vccd1 sky130_fd_sc_hd__tapvpwrvgnd_1
XFILLER_53_281 vssd1 vssd1 vccd1 vccd1 sky130_fd_sc_hd__decap_3
XFILLER_26_97 vssd1 vssd1 vccd1 vccd1 sky130_fd_sc_hd__fill_1
XFILLER_26_53 vssd1 vssd1 vccd1 vccd1 sky130_ef_sc_hd__decap_12
XFILLER_9_105 vssd1 vssd1 vccd1 vccd1 sky130_fd_sc_hd__decap_6
XFILLER_13_101 vssd1 vssd1 vccd1 vccd1 sky130_fd_sc_hd__decap_8
XFILLER_13_167 vssd1 vssd1 vccd1 vccd1 sky130_fd_sc_hd__fill_1
XFILLER_42_85 vssd1 vssd1 vccd1 vccd1 sky130_fd_sc_hd__fill_2
XFILLER_42_41 vssd1 vssd1 vccd1 vccd1 sky130_ef_sc_hd__decap_12
XFILLER_9_149 vssd1 vssd1 vccd1 vccd1 sky130_ef_sc_hd__decap_12
XFILLER_3_57 vssd1 vssd1 vccd1 vccd1 sky130_ef_sc_hd__decap_12
XFILLER_51_207 vssd1 vssd1 vccd1 vccd1 sky130_ef_sc_hd__decap_12
X_1102__153 vssd1 vssd1 vccd1 vccd1 net153 _1102__153/LO sky130_fd_sc_hd__conb_1
XFILLER_59_329 vssd1 vssd1 vccd1 vccd1 sky130_fd_sc_hd__decap_6
X_0418_ mem_left_track_1.DFFR_2_.Q vssd1 vssd1 vccd1 vccd1 _0326_ sky130_fd_sc_hd__inv_2
XFILLER_27_204 vssd1 vssd1 vccd1 vccd1 sky130_fd_sc_hd__fill_2
XFILLER_63_18 vssd1 vssd1 vccd1 vccd1 sky130_fd_sc_hd__decap_4
XFILLER_50_251 vssd1 vssd1 vccd1 vccd1 sky130_fd_sc_hd__fill_1
XFILLER_35_281 vssd1 vssd1 vccd1 vccd1 sky130_fd_sc_hd__decap_6
XFILLER_35_270 vssd1 vssd1 vccd1 vccd1 sky130_fd_sc_hd__decap_4
XFILLER_12_77 vssd1 vssd1 vccd1 vccd1 sky130_fd_sc_hd__decap_6
XFILLER_58_395 vssd1 vssd1 vccd1 vccd1 sky130_fd_sc_hd__fill_1
XFILLER_58_362 vssd1 vssd1 vccd1 vccd1 sky130_fd_sc_hd__fill_2
XFILLER_53_51 vssd1 vssd1 vccd1 vccd1 sky130_fd_sc_hd__decap_4
Xclkbuf_4_6_0_prog_clk clknet_0_prog_clk vssd1 vssd1 vccd1 vccd1 clknet_4_6_0_prog_clk
+ sky130_fd_sc_hd__clkbuf_8
XFILLER_49_373 vssd1 vssd1 vccd1 vccd1 sky130_ef_sc_hd__decap_12
XFILLER_64_365 vssd1 vssd1 vccd1 vccd1 sky130_fd_sc_hd__fill_2
XFILLER_64_321 vssd1 vssd1 vccd1 vccd1 sky130_fd_sc_hd__decap_4
X_1183_ mux_right_track_8.INVTX1_4_.out _0296_ vssd1 vssd1 vccd1 vccd1 mux_right_track_8.mux_2level_tapbuf_basis_input4_mem4_1_out
+ sky130_fd_sc_hd__ebufn_4
XFILLER_32_240 vssd1 vssd1 vccd1 vccd1 sky130_fd_sc_hd__decap_4
XFILLER_17_281 vssd1 vssd1 vccd1 vccd1 sky130_ef_sc_hd__decap_12
XFILLER_32_251 vssd1 vssd1 vccd1 vccd1 sky130_fd_sc_hd__fill_1
XFILLER_58_29 vssd1 vssd1 vccd1 vccd1 sky130_ef_sc_hd__decap_12
X_0898_ clknet_4_2_0_prog_clk mem_right_track_32.DFFR_2_.Q _0012_ vssd1 vssd1 vccd1
+ vccd1 mem_right_track_32.DFFR_3_.Q sky130_fd_sc_hd__dfrtp_1
XFILLER_2_177 vssd1 vssd1 vccd1 vccd1 sky130_ef_sc_hd__decap_12
XFILLER_2_133 vssd1 vssd1 vccd1 vccd1 sky130_fd_sc_hd__decap_6
XFILLER_61_324 vssd1 vssd1 vccd1 vccd1 sky130_fd_sc_hd__fill_1
XFILLER_61_313 vssd1 vssd1 vccd1 vccd1 sky130_fd_sc_hd__decap_4
XFILLER_58_181 vssd1 vssd1 vccd1 vccd1 sky130_ef_sc_hd__decap_12
XFILLER_46_387 vssd1 vssd1 vccd1 vccd1 sky130_fd_sc_hd__decap_8
XFILLER_46_365 vssd1 vssd1 vccd1 vccd1 sky130_fd_sc_hd__fill_2
XFILLER_0_69 vssd1 vssd1 vccd1 vccd1 sky130_fd_sc_hd__decap_8
X_0821_ _0124_ vssd1 vssd1 vccd1 vccd1 _0054_ sky130_fd_sc_hd__inv_2
X_0752_ _0118_ vssd1 vssd1 vccd1 vccd1 _0109_ sky130_fd_sc_hd__inv_2
XFILLER_14_295 vssd1 vssd1 vccd1 vccd1 sky130_ef_sc_hd__decap_12
X_0683_ mux_left_track_1.mux_2level_tapbuf_basis_input4_mem4_2_out vssd1 vssd1 vccd1
+ vccd1 mux_left_track_1.out sky130_fd_sc_hd__inv_2
XFILLER_43_3 vssd1 vssd1 vccd1 vccd1 sky130_ef_sc_hd__decap_12
XFILLER_56_129 vssd1 vssd1 vccd1 vccd1 sky130_fd_sc_hd__decap_6
X_1235_ net166 _0348_ vssd1 vssd1 vccd1 vccd1 mux_left_track_25.mux_2level_tapbuf_basis_input4_mem4_2_out
+ sky130_fd_sc_hd__ebufn_4
X_1166_ mux_left_track_33.INVTX1_5_.out _0279_ vssd1 vssd1 vccd1 vccd1 mux_left_track_33.mux_2level_tapbuf_basis_input3_mem3_1_out
+ sky130_fd_sc_hd__ebufn_2
XFILLER_64_184 vssd1 vssd1 vccd1 vccd1 sky130_fd_sc_hd__fill_2
XFILLER_60_390 vssd1 vssd1 vccd1 vccd1 sky130_fd_sc_hd__decap_4
X_1097_ net152 _0210_ vssd1 vssd1 vccd1 vccd1 mux_top_track_26.mux_2level_tapbuf_basis_input2_mem1_1_out
+ sky130_fd_sc_hd__ebufn_1
XFILLER_43_335 vssd1 vssd1 vccd1 vccd1 sky130_fd_sc_hd__fill_1
XFILLER_34_20 vssd1 vssd1 vccd1 vccd1 sky130_fd_sc_hd__decap_8
XFILLER_28_398 vssd1 vssd1 vccd1 vccd1 sky130_fd_sc_hd__decap_4
XFILLER_28_365 vssd1 vssd1 vccd1 vccd1 sky130_fd_sc_hd__fill_2
XFILLER_28_343 vssd1 vssd1 vccd1 vccd1 sky130_fd_sc_hd__decap_4
XFILLER_28_321 vssd1 vssd1 vccd1 vccd1 sky130_fd_sc_hd__decap_8
XFILLER_18_65 vssd1 vssd1 vccd1 vccd1 sky130_ef_sc_hd__decap_12
X_1081__148 vssd1 vssd1 vccd1 vccd1 net148 _1081__148/LO sky130_fd_sc_hd__conb_1
XFILLER_50_41 vssd1 vssd1 vccd1 vccd1 sky130_ef_sc_hd__decap_12
XFILLER_34_97 vssd1 vssd1 vccd1 vccd1 sky130_ef_sc_hd__decap_12
XFILLER_34_53 vssd1 vssd1 vccd1 vccd1 sky130_ef_sc_hd__decap_12
XFILLER_7_225 vssd1 vssd1 vccd1 vccd1 sky130_ef_sc_hd__decap_12
XFILLER_11_276 vssd1 vssd1 vccd1 vccd1 sky130_fd_sc_hd__decap_4
XTAP_519 vssd1 vccd1 sky130_fd_sc_hd__tapvpwrvgnd_1
XTAP_508 vssd1 vccd1 sky130_fd_sc_hd__tapvpwrvgnd_1
XFILLER_50_85 vssd1 vssd1 vccd1 vccd1 sky130_fd_sc_hd__decap_4
X_1020_ net15 vssd1 vssd1 vccd1 vccd1 net118 sky130_fd_sc_hd__clkbuf_2
XFILLER_38_107 vssd1 vssd1 vccd1 vccd1 sky130_fd_sc_hd__decap_6
XFILLER_19_321 vssd1 vssd1 vccd1 vccd1 sky130_fd_sc_hd__decap_4
XFILLER_61_110 vssd1 vssd1 vccd1 vccd1 sky130_fd_sc_hd__fill_2
XFILLER_46_184 vssd1 vssd1 vccd1 vccd1 sky130_ef_sc_hd__decap_12
X_0735_ _0155_ vssd1 vssd1 vccd1 vccd1 _0094_ sky130_fd_sc_hd__inv_2
X_0804_ _0123_ vssd1 vssd1 vccd1 vccd1 _0038_ sky130_fd_sc_hd__inv_2
X_0666_ net19 vssd1 vssd1 vccd1 vccd1 mux_right_track_8.INVTX1_7_.out sky130_fd_sc_hd__inv_2
XFILLER_57_405 vssd1 vssd1 vccd1 vccd1 sky130_fd_sc_hd__fill_2
X_0597_ mem_top_track_2.DFFR_1_.Q vssd1 vssd1 vccd1 vccd1 _0169_ sky130_fd_sc_hd__inv_2
X_1218_ mux_left_track_1.mux_2level_tapbuf_basis_input4_mem4_0_out _0331_ vssd1 vssd1
+ vccd1 vccd1 mux_left_track_1.mux_2level_tapbuf_basis_input4_mem4_2_out sky130_fd_sc_hd__ebufn_4
X_1149_ mux_left_track_9.mux_2level_tapbuf_basis_input3_mem3_1_out _0262_ vssd1 vssd1
+ vccd1 vccd1 mux_left_track_9.mux_2level_tapbuf_basis_input3_mem3_3_out sky130_fd_sc_hd__ebufn_2
XFILLER_37_151 vssd1 vssd1 vccd1 vccd1 sky130_fd_sc_hd__decap_8
XFILLER_52_154 vssd1 vssd1 vccd1 vccd1 sky130_fd_sc_hd__fill_1
XFILLER_33_390 vssd1 vssd1 vccd1 vccd1 sky130_fd_sc_hd__fill_2
XFILLER_25_379 vssd1 vssd1 vccd1 vccd1 sky130_fd_sc_hd__decap_4
XFILLER_20_77 vssd1 vssd1 vccd1 vccd1 sky130_fd_sc_hd__decap_6
XFILLER_48_405 vssd1 vssd1 vccd1 vccd1 sky130_fd_sc_hd__fill_2
XFILLER_29_20 vssd1 vssd1 vccd1 vccd1 sky130_ef_sc_hd__decap_12
XFILLER_43_165 vssd1 vssd1 vccd1 vccd1 sky130_fd_sc_hd__decap_3
XFILLER_43_110 vssd1 vssd1 vccd1 vccd1 sky130_fd_sc_hd__fill_2
XANTENNA_6 mem_left_track_1.DFFR_3_.Q vssd1 vssd1 vccd1 vccd1 sky130_fd_sc_hd__diode_2
XFILLER_61_84 vssd1 vssd1 vccd1 vccd1 sky130_fd_sc_hd__decap_8
X_0451_ mem_right_track_8.DFFR_5_.Q vssd1 vssd1 vccd1 vccd1 _0286_ sky130_fd_sc_hd__inv_2
XTAP_349 vssd1 vccd1 sky130_fd_sc_hd__tapvpwrvgnd_1
XTAP_338 vssd1 vccd1 sky130_fd_sc_hd__tapvpwrvgnd_1
XTAP_327 vssd1 vccd1 sky130_fd_sc_hd__tapvpwrvgnd_1
XTAP_316 vssd1 vccd1 sky130_fd_sc_hd__tapvpwrvgnd_1
XTAP_305 vssd1 vccd1 sky130_fd_sc_hd__tapvpwrvgnd_1
XFILLER_3_261 vssd1 vssd1 vccd1 vccd1 sky130_ef_sc_hd__decap_12
X_0520_ mem_top_track_22.DFFR_0_.Q vssd1 vssd1 vccd1 vccd1 _0131_ sky130_fd_sc_hd__clkbuf_1
XFILLER_34_121 vssd1 vssd1 vccd1 vccd1 sky130_ef_sc_hd__decap_12
X_1003_ net32 vssd1 vssd1 vccd1 vccd1 net97 sky130_fd_sc_hd__clkbuf_1
XFILLER_19_140 vssd1 vssd1 vccd1 vccd1 sky130_fd_sc_hd__decap_8
XFILLER_34_187 vssd1 vssd1 vccd1 vccd1 sky130_fd_sc_hd__decap_8
XFILLER_34_165 vssd1 vssd1 vccd1 vccd1 sky130_fd_sc_hd__fill_2
X_0718_ _0154_ vssd1 vssd1 vccd1 vccd1 _0078_ sky130_fd_sc_hd__inv_2
XFILLER_57_257 vssd1 vssd1 vccd1 vccd1 sky130_fd_sc_hd__fill_1
X_0649_ net26 vssd1 vssd1 vccd1 vccd1 mux_left_track_9.INVTX1_5_.out sky130_fd_sc_hd__inv_2
XFILLER_25_198 vssd1 vssd1 vccd1 vccd1 sky130_fd_sc_hd__fill_1
XFILLER_25_121 vssd1 vssd1 vccd1 vccd1 sky130_fd_sc_hd__fill_1
XFILLER_13_349 vssd1 vssd1 vccd1 vccd1 sky130_ef_sc_hd__decap_12
XFILLER_15_44 vssd1 vssd1 vccd1 vccd1 sky130_ef_sc_hd__decap_12
XFILLER_40_146 vssd1 vssd1 vccd1 vccd1 sky130_ef_sc_hd__decap_12
XFILLER_21_393 vssd1 vssd1 vccd1 vccd1 sky130_fd_sc_hd__fill_2
Xoutput98 net98 vssd1 vssd1 vccd1 vccd1 chanx_left_out[4] sky130_fd_sc_hd__buf_2
XFILLER_0_253 vssd1 vssd1 vccd1 vccd1 sky130_fd_sc_hd__fill_2
Xoutput87 net87 vssd1 vssd1 vccd1 vccd1 chanx_left_out[11] sky130_fd_sc_hd__buf_2
XFILLER_63_205 vssd1 vssd1 vccd1 vccd1 sky130_fd_sc_hd__decap_4
XFILLER_0_286 vssd1 vssd1 vccd1 vccd1 sky130_fd_sc_hd__decap_4
XFILLER_31_113 vssd1 vssd1 vccd1 vccd1 sky130_ef_sc_hd__decap_12
XFILLER_16_165 vssd1 vssd1 vccd1 vccd1 sky130_fd_sc_hd__fill_1
X_0503_ mem_right_track_0.DFFR_1_.Q vssd1 vssd1 vccd1 vccd1 _0242_ sky130_fd_sc_hd__inv_2
X_0434_ mem_right_track_16.DFFR_3_.Q vssd1 vssd1 vccd1 vccd1 _0306_ sky130_fd_sc_hd__inv_2
XTAP_168 vssd1 vccd1 sky130_fd_sc_hd__tapvpwrvgnd_1
XTAP_157 vssd1 vccd1 sky130_fd_sc_hd__tapvpwrvgnd_1
XTAP_146 vssd1 vccd1 sky130_fd_sc_hd__tapvpwrvgnd_1
XTAP_135 vssd1 vccd1 sky130_fd_sc_hd__tapvpwrvgnd_1
XTAP_179 vssd1 vccd1 sky130_fd_sc_hd__tapvpwrvgnd_1
XFILLER_50_400 vssd1 vssd1 vccd1 vccd1 sky130_fd_sc_hd__fill_1
XFILLER_30_190 vssd1 vssd1 vccd1 vccd1 sky130_fd_sc_hd__decap_6
XFILLER_22_146 vssd1 vssd1 vccd1 vccd1 sky130_fd_sc_hd__decap_4
XFILLER_53_260 vssd1 vssd1 vccd1 vccd1 sky130_fd_sc_hd__decap_4
XFILLER_42_53 vssd1 vssd1 vccd1 vccd1 sky130_fd_sc_hd__decap_8
XFILLER_26_65 vssd1 vssd1 vccd1 vccd1 sky130_ef_sc_hd__decap_12
XFILLER_13_113 vssd1 vssd1 vccd1 vccd1 sky130_ef_sc_hd__decap_12
XFILLER_42_75 vssd1 vssd1 vccd1 vccd1 sky130_fd_sc_hd__decap_4
XFILLER_3_69 vssd1 vssd1 vccd1 vccd1 sky130_ef_sc_hd__decap_12
XFILLER_51_219 vssd1 vssd1 vccd1 vccd1 sky130_fd_sc_hd__decap_4
X_0417_ mem_left_track_1.DFFR_3_.Q vssd1 vssd1 vccd1 vccd1 _0327_ sky130_fd_sc_hd__inv_2
XFILLER_27_249 vssd1 vssd1 vccd1 vccd1 sky130_ef_sc_hd__decap_12
XFILLER_10_105 vssd1 vssd1 vccd1 vccd1 sky130_fd_sc_hd__fill_1
XFILLER_6_109 vssd1 vssd1 vccd1 vccd1 sky130_ef_sc_hd__decap_12
XFILLER_37_53 vssd1 vssd1 vccd1 vccd1 sky130_fd_sc_hd__decap_3
XFILLER_53_96 vssd1 vssd1 vccd1 vccd1 sky130_fd_sc_hd__decap_4
XFILLER_49_385 vssd1 vssd1 vccd1 vccd1 sky130_fd_sc_hd__decap_6
X_1182_ mux_right_track_8.mux_2level_tapbuf_basis_input4_mem4_0_out _0295_ vssd1 vssd1
+ vccd1 vccd1 mux_right_track_8.mux_2level_tapbuf_basis_input4_mem4_2_out sky130_fd_sc_hd__ebufn_4
XFILLER_32_274 vssd1 vssd1 vccd1 vccd1 sky130_fd_sc_hd__decap_4
XFILLER_17_293 vssd1 vssd1 vccd1 vccd1 sky130_ef_sc_hd__decap_12
X_0897_ clknet_4_8_0_prog_clk mem_right_track_32.DFFR_3_.Q _0011_ vssd1 vssd1 vccd1
+ vccd1 mem_right_track_32.DFFR_4_.Q sky130_fd_sc_hd__dfrtp_1
XFILLER_32_296 vssd1 vssd1 vccd1 vccd1 sky130_fd_sc_hd__decap_4
XFILLER_59_149 vssd1 vssd1 vccd1 vccd1 sky130_fd_sc_hd__decap_8
XFILLER_55_366 vssd1 vssd1 vccd1 vccd1 sky130_fd_sc_hd__fill_1
XFILLER_55_300 vssd1 vssd1 vccd1 vccd1 sky130_ef_sc_hd__decap_12
XFILLER_23_296 vssd1 vssd1 vccd1 vccd1 sky130_fd_sc_hd__decap_6
XFILLER_23_230 vssd1 vssd1 vccd1 vccd1 sky130_fd_sc_hd__decap_4
XFILLER_23_55 vssd1 vssd1 vccd1 vccd1 sky130_fd_sc_hd__fill_1
XFILLER_3_3 vssd1 vssd1 vccd1 vccd1 sky130_fd_sc_hd__fill_2
XFILLER_58_193 vssd1 vssd1 vccd1 vccd1 sky130_fd_sc_hd__decap_3
XFILLER_48_85 vssd1 vssd1 vccd1 vccd1 sky130_fd_sc_hd__fill_2
XFILLER_48_63 vssd1 vssd1 vccd1 vccd1 sky130_fd_sc_hd__decap_8
XFILLER_48_41 vssd1 vssd1 vccd1 vccd1 sky130_ef_sc_hd__decap_12
XFILLER_2_189 vssd1 vssd1 vccd1 vccd1 sky130_fd_sc_hd__decap_6
XFILLER_46_399 vssd1 vssd1 vccd1 vccd1 sky130_fd_sc_hd__fill_2
XFILLER_46_355 vssd1 vssd1 vccd1 vccd1 sky130_fd_sc_hd__decap_8
XFILLER_0_48 vssd1 vssd1 vccd1 vccd1 sky130_fd_sc_hd__decap_8
X_0820_ _0124_ vssd1 vssd1 vccd1 vccd1 _0053_ sky130_fd_sc_hd__inv_2
X_0751_ _0118_ vssd1 vssd1 vccd1 vccd1 _0108_ sky130_fd_sc_hd__inv_2
XFILLER_9_57 vssd1 vssd1 vccd1 vccd1 sky130_ef_sc_hd__decap_12
XFILLER_36_3 vssd1 vssd1 vccd1 vccd1 sky130_fd_sc_hd__decap_4
X_0682_ net10 vssd1 vssd1 vccd1 vccd1 mux_right_track_24.INVTX1_8_.out sky130_fd_sc_hd__inv_2
XFILLER_64_152 vssd1 vssd1 vccd1 vccd1 sky130_fd_sc_hd__decap_4
XFILLER_64_141 vssd1 vssd1 vccd1 vccd1 sky130_fd_sc_hd__decap_6
XFILLER_37_311 vssd1 vssd1 vccd1 vccd1 sky130_fd_sc_hd__fill_2
X_1096_ mux_left_track_17.INVTX1_6_.out _0209_ vssd1 vssd1 vccd1 vccd1 mux_top_track_24.mux_2level_tapbuf_basis_input2_mem1_0_out
+ sky130_fd_sc_hd__ebufn_2
X_1165_ mux_left_track_33.INVTX1_4_.out _0278_ vssd1 vssd1 vccd1 vccd1 mux_left_track_33.mux_2level_tapbuf_basis_input3_mem3_1_out
+ sky130_fd_sc_hd__ebufn_2
X_1234_ mux_left_track_25.INVTX1_8_.out _0347_ vssd1 vssd1 vccd1 vccd1 mux_left_track_25.mux_2level_tapbuf_basis_input4_mem4_2_out
+ sky130_fd_sc_hd__ebufn_4
X_0949_ clknet_4_11_0_prog_clk mem_left_track_17.DFFR_3_.Q _0063_ vssd1 vssd1 vccd1
+ vccd1 mem_left_track_17.DFFR_4_.Q sky130_fd_sc_hd__dfrtp_1
XFILLER_28_377 vssd1 vssd1 vccd1 vccd1 sky130_fd_sc_hd__decap_4
XFILLER_18_77 vssd1 vssd1 vccd1 vccd1 sky130_fd_sc_hd__decap_6
XFILLER_50_53 vssd1 vssd1 vccd1 vccd1 sky130_ef_sc_hd__decap_12
XFILLER_50_20 vssd1 vssd1 vccd1 vccd1 sky130_fd_sc_hd__decap_8
XFILLER_34_65 vssd1 vssd1 vccd1 vccd1 sky130_ef_sc_hd__decap_12
XFILLER_7_237 vssd1 vssd1 vccd1 vccd1 sky130_ef_sc_hd__decap_12
XFILLER_11_200 vssd1 vssd1 vccd1 vccd1 sky130_ef_sc_hd__decap_12
XFILLER_59_40 vssd1 vssd1 vccd1 vccd1 sky130_ef_sc_hd__decap_12
XTAP_509 vssd1 vccd1 sky130_fd_sc_hd__tapvpwrvgnd_1
XFILLER_46_141 vssd1 vssd1 vccd1 vccd1 sky130_fd_sc_hd__fill_2
XFILLER_34_314 vssd1 vssd1 vccd1 vccd1 sky130_fd_sc_hd__decap_6
XFILLER_15_8 vssd1 vssd1 vccd1 vccd1 sky130_ef_sc_hd__decap_12
XFILLER_19_377 vssd1 vssd1 vccd1 vccd1 sky130_fd_sc_hd__decap_4
XFILLER_22_9 vssd1 vssd1 vccd1 vccd1 sky130_ef_sc_hd__decap_12
XFILLER_61_166 vssd1 vssd1 vccd1 vccd1 sky130_fd_sc_hd__fill_2
XFILLER_61_144 vssd1 vssd1 vccd1 vccd1 sky130_fd_sc_hd__decap_4
XFILLER_34_369 vssd1 vssd1 vccd1 vccd1 sky130_fd_sc_hd__fill_1
X_0803_ _0152_ vssd1 vssd1 vccd1 vccd1 _0123_ sky130_fd_sc_hd__buf_4
X_0665_ mux_right_track_8.mux_2level_tapbuf_basis_input4_mem4_2_out vssd1 vssd1 vccd1
+ vccd1 mux_right_track_8.out sky130_fd_sc_hd__inv_2