* NGSPICE file created from sb_1__4_.ext - technology: sky130A

* Black-box entry subcircuit for sky130_fd_sc_hd__decap_8 abstract view
.subckt sky130_fd_sc_hd__decap_8 VGND VNB VPB VPWR
.ends

* Black-box entry subcircuit for sky130_fd_sc_hd__decap_3 abstract view
.subckt sky130_fd_sc_hd__decap_3 VGND VNB VPB VPWR
.ends

* Black-box entry subcircuit for sky130_fd_sc_hd__tapvpwrvgnd_1 abstract view
.subckt sky130_fd_sc_hd__tapvpwrvgnd_1 VGND VPWR
.ends

* Black-box entry subcircuit for sky130_ef_sc_hd__decap_12 abstract view
.subckt sky130_ef_sc_hd__decap_12 VGND VNB VPB VPWR
.ends

* Black-box entry subcircuit for sky130_fd_sc_hd__fill_1 abstract view
.subckt sky130_fd_sc_hd__fill_1 VGND VNB VPB VPWR
.ends

* Black-box entry subcircuit for sky130_fd_sc_hd__decap_4 abstract view
.subckt sky130_fd_sc_hd__decap_4 VGND VNB VPB VPWR
.ends

* Black-box entry subcircuit for sky130_fd_sc_hd__fill_2 abstract view
.subckt sky130_fd_sc_hd__fill_2 VGND VNB VPB VPWR
.ends

* Black-box entry subcircuit for sky130_fd_sc_hd__decap_6 abstract view
.subckt sky130_fd_sc_hd__decap_6 VGND VNB VPB VPWR
.ends

* Black-box entry subcircuit for sky130_fd_sc_hd__conb_1 abstract view
.subckt sky130_fd_sc_hd__conb_1 VGND VNB VPB VPWR HI LO
.ends

* Black-box entry subcircuit for sky130_fd_sc_hd__clkbuf_1 abstract view
.subckt sky130_fd_sc_hd__clkbuf_1 A VGND VNB VPB VPWR X
.ends

* Black-box entry subcircuit for sky130_fd_sc_hd__inv_2 abstract view
.subckt sky130_fd_sc_hd__inv_2 A VGND VNB VPB VPWR Y
.ends

* Black-box entry subcircuit for sky130_fd_sc_hd__ebufn_2 abstract view
.subckt sky130_fd_sc_hd__ebufn_2 A TE_B VGND VNB VPB VPWR Z
.ends

* Black-box entry subcircuit for sky130_fd_sc_hd__dfrtp_1 abstract view
.subckt sky130_fd_sc_hd__dfrtp_1 CLK D RESET_B VGND VNB VPB VPWR Q
.ends

* Black-box entry subcircuit for sky130_fd_sc_hd__ebufn_1 abstract view
.subckt sky130_fd_sc_hd__ebufn_1 A TE_B VGND VNB VPB VPWR Z
.ends

* Black-box entry subcircuit for sky130_fd_sc_hd__ebufn_4 abstract view
.subckt sky130_fd_sc_hd__ebufn_4 A TE_B VGND VNB VPB VPWR Z
.ends

* Black-box entry subcircuit for sky130_fd_sc_hd__buf_2 abstract view
.subckt sky130_fd_sc_hd__buf_2 A VGND VNB VPB VPWR X
.ends

* Black-box entry subcircuit for sky130_fd_sc_hd__clkbuf_8 abstract view
.subckt sky130_fd_sc_hd__clkbuf_8 A VGND VNB VPB VPWR X
.ends

* Black-box entry subcircuit for sky130_fd_sc_hd__dfrtp_2 abstract view
.subckt sky130_fd_sc_hd__dfrtp_2 CLK D RESET_B VGND VNB VPB VPWR Q
.ends

* Black-box entry subcircuit for sky130_fd_sc_hd__buf_4 abstract view
.subckt sky130_fd_sc_hd__buf_4 A VGND VNB VPB VPWR X
.ends

* Black-box entry subcircuit for sky130_fd_sc_hd__dfrtp_4 abstract view
.subckt sky130_fd_sc_hd__dfrtp_4 CLK D RESET_B VGND VNB VPB VPWR Q
.ends

* Black-box entry subcircuit for sky130_fd_sc_hd__clkbuf_2 abstract view
.subckt sky130_fd_sc_hd__clkbuf_2 A VGND VNB VPB VPWR X
.ends

* Black-box entry subcircuit for sky130_fd_sc_hd__clkinv_2 abstract view
.subckt sky130_fd_sc_hd__clkinv_2 A VGND VNB VPB VPWR Y
.ends

* Black-box entry subcircuit for sky130_fd_sc_hd__clkbuf_16 abstract view
.subckt sky130_fd_sc_hd__clkbuf_16 A VGND VNB VPB VPWR X
.ends

* Black-box entry subcircuit for sky130_fd_sc_hd__dlymetal6s2s_1 abstract view
.subckt sky130_fd_sc_hd__dlymetal6s2s_1 A VGND VNB VPB VPWR X
.ends

* Black-box entry subcircuit for sky130_fd_sc_hd__diode_2 abstract view
.subckt sky130_fd_sc_hd__diode_2 DIODE VGND VNB VPB VPWR
.ends

.subckt sb_1__4_ bottom_left_grid_right_width_0_height_0_subtile_0__pin_O_1_ bottom_left_grid_right_width_0_height_0_subtile_0__pin_O_5_
+ bottom_right_grid_left_width_0_height_0_subtile_0__pin_O_3_ bottom_right_grid_left_width_0_height_0_subtile_0__pin_O_7_
+ ccff_head ccff_tail chanx_left_in[0] chanx_left_in[10] chanx_left_in[11] chanx_left_in[12]
+ chanx_left_in[13] chanx_left_in[14] chanx_left_in[15] chanx_left_in[16] chanx_left_in[17]
+ chanx_left_in[18] chanx_left_in[1] chanx_left_in[2] chanx_left_in[3] chanx_left_in[4]
+ chanx_left_in[5] chanx_left_in[6] chanx_left_in[7] chanx_left_in[8] chanx_left_in[9]
+ chanx_left_out[0] chanx_left_out[10] chanx_left_out[11] chanx_left_out[12] chanx_left_out[13]
+ chanx_left_out[14] chanx_left_out[15] chanx_left_out[16] chanx_left_out[17] chanx_left_out[18]
+ chanx_left_out[1] chanx_left_out[2] chanx_left_out[3] chanx_left_out[4] chanx_left_out[5]
+ chanx_left_out[6] chanx_left_out[7] chanx_left_out[8] chanx_left_out[9] chanx_right_in[0]
+ chanx_right_in[10] chanx_right_in[11] chanx_right_in[12] chanx_right_in[13] chanx_right_in[14]
+ chanx_right_in[15] chanx_right_in[16] chanx_right_in[17] chanx_right_in[18] chanx_right_in[1]
+ chanx_right_in[2] chanx_right_in[3] chanx_right_in[4] chanx_right_in[5] chanx_right_in[6]
+ chanx_right_in[7] chanx_right_in[8] chanx_right_in[9] chanx_right_out[0] chanx_right_out[10]
+ chanx_right_out[11] chanx_right_out[12] chanx_right_out[13] chanx_right_out[14]
+ chanx_right_out[15] chanx_right_out[16] chanx_right_out[17] chanx_right_out[18]
+ chanx_right_out[1] chanx_right_out[2] chanx_right_out[3] chanx_right_out[4] chanx_right_out[5]
+ chanx_right_out[6] chanx_right_out[7] chanx_right_out[8] chanx_right_out[9] chany_bottom_in[0]
+ chany_bottom_in[10] chany_bottom_in[11] chany_bottom_in[12] chany_bottom_in[13]
+ chany_bottom_in[14] chany_bottom_in[15] chany_bottom_in[16] chany_bottom_in[17]
+ chany_bottom_in[18] chany_bottom_in[1] chany_bottom_in[2] chany_bottom_in[3] chany_bottom_in[4]
+ chany_bottom_in[5] chany_bottom_in[6] chany_bottom_in[7] chany_bottom_in[8] chany_bottom_in[9]
+ chany_bottom_out[0] chany_bottom_out[10] chany_bottom_out[11] chany_bottom_out[12]
+ chany_bottom_out[13] chany_bottom_out[14] chany_bottom_out[15] chany_bottom_out[16]
+ chany_bottom_out[17] chany_bottom_out[18] chany_bottom_out[1] chany_bottom_out[2]
+ chany_bottom_out[3] chany_bottom_out[4] chany_bottom_out[5] chany_bottom_out[6]
+ chany_bottom_out[7] chany_bottom_out[8] chany_bottom_out[9] left_bottom_grid_top_width_0_height_0_subtile_0__pin_O_0_
+ left_bottom_grid_top_width_0_height_0_subtile_0__pin_O_4_ left_top_grid_bottom_width_0_height_0_subtile_0__pin_inpad_0_
+ left_top_grid_bottom_width_0_height_0_subtile_1__pin_inpad_0_ left_top_grid_bottom_width_0_height_0_subtile_2__pin_inpad_0_
+ left_top_grid_bottom_width_0_height_0_subtile_3__pin_inpad_0_ left_top_grid_bottom_width_0_height_0_subtile_4__pin_inpad_0_
+ left_top_grid_bottom_width_0_height_0_subtile_5__pin_inpad_0_ left_top_grid_bottom_width_0_height_0_subtile_6__pin_inpad_0_
+ left_top_grid_bottom_width_0_height_0_subtile_7__pin_inpad_0_ pReset prog_clk right_bottom_grid_top_width_0_height_0_subtile_0__pin_O_0_
+ right_bottom_grid_top_width_0_height_0_subtile_0__pin_O_4_ right_top_grid_bottom_width_0_height_0_subtile_0__pin_inpad_0_
+ right_top_grid_bottom_width_0_height_0_subtile_1__pin_inpad_0_ right_top_grid_bottom_width_0_height_0_subtile_2__pin_inpad_0_
+ right_top_grid_bottom_width_0_height_0_subtile_3__pin_inpad_0_ right_top_grid_bottom_width_0_height_0_subtile_4__pin_inpad_0_
+ right_top_grid_bottom_width_0_height_0_subtile_5__pin_inpad_0_ right_top_grid_bottom_width_0_height_0_subtile_6__pin_inpad_0_
+ right_top_grid_bottom_width_0_height_0_subtile_7__pin_inpad_0_ vccd1 vssd1 vssd1_uq0
+ vccd1_uq0
XFILLER_54_203 vssd1 vssd1 vccd1 vccd1 sky130_fd_sc_hd__decap_8
XFILLER_39_277 vssd1 vssd1 vccd1 vccd1 sky130_fd_sc_hd__decap_3
XTAP_177 vssd1 vccd1 sky130_fd_sc_hd__tapvpwrvgnd_1
XTAP_188 vssd1 vccd1 sky130_fd_sc_hd__tapvpwrvgnd_1
XTAP_199 vssd1 vccd1 sky130_fd_sc_hd__tapvpwrvgnd_1
XFILLER_52_29 vssd1 vssd1 vccd1 vccd1 sky130_ef_sc_hd__decap_12
XFILLER_22_177 vssd1 vssd1 vccd1 vccd1 sky130_fd_sc_hd__fill_1
XFILLER_22_100 vssd1 vssd1 vccd1 vccd1 sky130_fd_sc_hd__decap_4
XFILLER_10_306 vssd1 vssd1 vccd1 vccd1 sky130_fd_sc_hd__fill_2
XFILLER_45_225 vssd1 vssd1 vccd1 vccd1 sky130_fd_sc_hd__fill_2
XFILLER_26_85 vssd1 vssd1 vccd1 vccd1 sky130_fd_sc_hd__decap_6
XFILLER_13_166 vssd1 vssd1 vccd1 vccd1 sky130_fd_sc_hd__fill_2
XFILLER_13_199 vssd1 vssd1 vccd1 vccd1 sky130_fd_sc_hd__fill_2
XFILLER_5_354 vssd1 vssd1 vccd1 vccd1 sky130_ef_sc_hd__decap_12
X_1119__148 vssd1 vssd1 vccd1 vccd1 net148 _1119__148/LO sky130_fd_sc_hd__conb_1
XFILLER_51_217 vssd1 vssd1 vccd1 vccd1 sky130_fd_sc_hd__decap_6
XFILLER_8_181 vssd1 vssd1 vccd1 vccd1 sky130_fd_sc_hd__fill_2
XFILLER_59_317 vssd1 vssd1 vccd1 vccd1 sky130_ef_sc_hd__decap_12
X_0419_ mem_bottom_track_25.DFFR_0_.Q vssd1 vssd1 vccd1 vccd1 _0132_ sky130_fd_sc_hd__clkbuf_1
XFILLER_27_225 vssd1 vssd1 vccd1 vccd1 sky130_ef_sc_hd__decap_12
XFILLER_10_147 vssd1 vssd1 vccd1 vccd1 sky130_fd_sc_hd__fill_1
XFILLER_2_335 vssd1 vssd1 vccd1 vccd1 sky130_fd_sc_hd__decap_4
XFILLER_2_302 vssd1 vssd1 vccd1 vccd1 sky130_fd_sc_hd__decap_6
XFILLER_37_40 vssd1 vssd1 vccd1 vccd1 sky130_ef_sc_hd__decap_12
XFILLER_18_258 vssd1 vssd1 vccd1 vccd1 sky130_ef_sc_hd__decap_12
X_0770_ _0122_ vssd1 vssd1 vccd1 vccd1 _0009_ sky130_fd_sc_hd__inv_2
XFILLER_56_309 vssd1 vssd1 vccd1 vccd1 sky130_ef_sc_hd__decap_12
XFILLER_49_361 vssd1 vssd1 vccd1 vccd1 sky130_ef_sc_hd__decap_12
X_1184_ net158 _0298_ vssd1 vssd1 vccd1 vccd1 mux_bottom_track_17.mux_2level_tapbuf_basis_input2_mem1_1_out
+ sky130_fd_sc_hd__ebufn_2
XFILLER_20_401 vssd1 vssd1 vccd1 vccd1 sky130_fd_sc_hd__decap_6
X_0899_ clknet_4_1_0_prog_clk mem_right_track_32.DFFR_4_.Q _0012_ vssd1 vssd1 vccd1
+ vccd1 mem_bottom_track_1.DFFR_0_.D sky130_fd_sc_hd__dfrtp_1
XFILLER_59_169 vssd1 vssd1 vccd1 vccd1 sky130_ef_sc_hd__decap_12
XFILLER_59_125 vssd1 vssd1 vccd1 vccd1 sky130_ef_sc_hd__decap_12
XFILLER_7_405 vssd1 vssd1 vccd1 vccd1 sky130_fd_sc_hd__fill_2
XFILLER_38_309 vssd1 vssd1 vccd1 vccd1 sky130_ef_sc_hd__decap_12
XFILLER_48_83 vssd1 vssd1 vccd1 vccd1 sky130_fd_sc_hd__fill_1
XFILLER_0_57 vssd1 vssd1 vccd1 vccd1 sky130_fd_sc_hd__decap_4
XFILLER_9_22 vssd1 vssd1 vccd1 vccd1 sky130_fd_sc_hd__decap_6
X_0822_ _0127_ vssd1 vssd1 vccd1 vccd1 _0056_ sky130_fd_sc_hd__inv_2
XFILLER_50_3 vssd1 vssd1 vccd1 vccd1 sky130_fd_sc_hd__fill_2
X_0684_ net9 vssd1 vssd1 vccd1 vccd1 mux_bottom_track_19.INVTX1_2_.out sky130_fd_sc_hd__inv_2
X_0753_ _0120_ vssd1 vssd1 vccd1 vccd1 _0114_ sky130_fd_sc_hd__inv_2
XFILLER_56_139 vssd1 vssd1 vccd1 vccd1 sky130_fd_sc_hd__fill_1
XFILLER_37_331 vssd1 vssd1 vccd1 vccd1 sky130_fd_sc_hd__decap_4
X_1236_ mux_left_track_33.INVTX1_4_.out _0350_ vssd1 vssd1 vccd1 vccd1 mux_left_track_33.mux_2level_tapbuf_basis_input3_mem3_1_out
+ sky130_fd_sc_hd__ebufn_2
XFILLER_64_183 vssd1 vssd1 vccd1 vccd1 sky130_fd_sc_hd__fill_2
XFILLER_52_389 vssd1 vssd1 vccd1 vccd1 sky130_ef_sc_hd__decap_12
XFILLER_52_334 vssd1 vssd1 vccd1 vccd1 sky130_ef_sc_hd__decap_12
XFILLER_52_301 vssd1 vssd1 vccd1 vccd1 sky130_fd_sc_hd__decap_6
X_1167_ mux_bottom_track_5.INVTX1_0_.out _0281_ vssd1 vssd1 vccd1 vccd1 mux_bottom_track_5.mux_2level_tapbuf_basis_input3_mem3_0_out
+ sky130_fd_sc_hd__ebufn_1
X_1098_ mux_left_track_9.INVTX1_7_.out _0212_ vssd1 vssd1 vccd1 vccd1 mux_left_track_9.mux_2level_tapbuf_basis_input4_mem4_1_out
+ sky130_fd_sc_hd__ebufn_4
XFILLER_60_29 vssd1 vssd1 vccd1 vccd1 sky130_ef_sc_hd__decap_12
XFILLER_20_242 vssd1 vssd1 vccd1 vccd1 sky130_fd_sc_hd__decap_4
XFILLER_20_253 vssd1 vssd1 vccd1 vccd1 sky130_fd_sc_hd__fill_2
XFILLER_62_109 vssd1 vssd1 vccd1 vccd1 sky130_ef_sc_hd__decap_12
XFILLER_34_96 vssd1 vssd1 vccd1 vccd1 sky130_fd_sc_hd__decap_4
XFILLER_34_85 vssd1 vssd1 vccd1 vccd1 sky130_fd_sc_hd__decap_8
XFILLER_34_41 vssd1 vssd1 vccd1 vccd1 sky130_ef_sc_hd__decap_12
XTAP_507 vssd1 vccd1 sky130_fd_sc_hd__tapvpwrvgnd_1
XFILLER_7_257 vssd1 vssd1 vccd1 vccd1 sky130_fd_sc_hd__decap_4
XFILLER_59_93 vssd1 vssd1 vccd1 vccd1 sky130_ef_sc_hd__decap_12
XTAP_529 vssd1 vccd1 sky130_fd_sc_hd__tapvpwrvgnd_1
XTAP_518 vssd1 vccd1 sky130_fd_sc_hd__tapvpwrvgnd_1
X_1021_ mux_right_track_8.out vssd1 vssd1 vccd1 vccd1 net117 sky130_fd_sc_hd__clkbuf_1
XFILLER_34_389 vssd1 vssd1 vccd1 vccd1 sky130_ef_sc_hd__decap_12
XFILLER_34_345 vssd1 vssd1 vccd1 vccd1 sky130_fd_sc_hd__decap_8
X_0805_ _0125_ vssd1 vssd1 vccd1 vccd1 _0041_ sky130_fd_sc_hd__inv_2
X_0667_ net21 vssd1 vssd1 vccd1 vccd1 mux_bottom_track_11.INVTX1_1_.out sky130_fd_sc_hd__inv_2
X_0598_ mem_right_track_0.DFFR_4_.Q vssd1 vssd1 vccd1 vccd1 _0168_ sky130_fd_sc_hd__inv_2
X_0736_ _0158_ vssd1 vssd1 vccd1 vccd1 _0098_ sky130_fd_sc_hd__inv_2
XFILLER_44_109 vssd1 vssd1 vccd1 vccd1 sky130_fd_sc_hd__decap_8
X_1219_ mux_bottom_track_27.INVTX1_0_.out _0333_ vssd1 vssd1 vccd1 vccd1 mux_bottom_track_27.mux_2level_tapbuf_basis_input2_mem1_0_out
+ sky130_fd_sc_hd__ebufn_2
XFILLER_52_197 vssd1 vssd1 vccd1 vccd1 sky130_ef_sc_hd__decap_12
XFILLER_52_153 vssd1 vssd1 vccd1 vccd1 sky130_ef_sc_hd__decap_12
XFILLER_29_96 vssd1 vssd1 vccd1 vccd1 sky130_fd_sc_hd__decap_4
XFILLER_45_51 vssd1 vssd1 vccd1 vccd1 sky130_fd_sc_hd__decap_4
XFILLER_16_345 vssd1 vssd1 vccd1 vccd1 sky130_fd_sc_hd__decap_3
XFILLER_16_389 vssd1 vssd1 vccd1 vccd1 sky130_ef_sc_hd__decap_12
XFILLER_31_337 vssd1 vssd1 vccd1 vccd1 sky130_ef_sc_hd__decap_12
X_0521_ mem_right_track_32.DFFR_0_.Q vssd1 vssd1 vccd1 vccd1 _0252_ sky130_fd_sc_hd__inv_2
XTAP_348 vssd1 vccd1 sky130_fd_sc_hd__tapvpwrvgnd_1
XTAP_337 vssd1 vccd1 sky130_fd_sc_hd__tapvpwrvgnd_1
XTAP_326 vssd1 vccd1 sky130_fd_sc_hd__tapvpwrvgnd_1
XTAP_315 vssd1 vccd1 sky130_fd_sc_hd__tapvpwrvgnd_1
XTAP_304 vssd1 vccd1 sky130_fd_sc_hd__tapvpwrvgnd_1
XFILLER_3_293 vssd1 vssd1 vccd1 vccd1 sky130_fd_sc_hd__decap_4
XFILLER_3_271 vssd1 vssd1 vccd1 vccd1 sky130_fd_sc_hd__decap_4
X_0452_ mem_bottom_track_21.DFFR_0_.Q vssd1 vssd1 vccd1 vccd1 _0143_ sky130_fd_sc_hd__clkbuf_1
XTAP_359 vssd1 vccd1 sky130_fd_sc_hd__tapvpwrvgnd_1
X_0383_ mem_right_track_0.DFFR_5_.Q vssd1 vssd1 vccd1 vccd1 _0159_ sky130_fd_sc_hd__inv_2
XFILLER_13_3 vssd1 vssd1 vccd1 vccd1 sky130_fd_sc_hd__decap_4
X_1209__163 vssd1 vssd1 vccd1 vccd1 net163 _1209__163/LO sky130_fd_sc_hd__conb_1
XFILLER_34_197 vssd1 vssd1 vccd1 vccd1 sky130_fd_sc_hd__fill_2
X_1004_ net35 vssd1 vssd1 vccd1 vccd1 net96 sky130_fd_sc_hd__clkbuf_1
XFILLER_57_223 vssd1 vssd1 vccd1 vccd1 sky130_fd_sc_hd__fill_1
X_0719_ _0156_ vssd1 vssd1 vccd1 vccd1 _0083_ sky130_fd_sc_hd__inv_2
XFILLER_1_219 vssd1 vssd1 vccd1 vccd1 sky130_fd_sc_hd__decap_4
XFILLER_13_315 vssd1 vssd1 vccd1 vccd1 sky130_ef_sc_hd__decap_12
XFILLER_40_178 vssd1 vssd1 vccd1 vccd1 sky130_fd_sc_hd__decap_8
XFILLER_31_20 vssd1 vssd1 vccd1 vccd1 sky130_ef_sc_hd__decap_12
XFILLER_25_186 vssd1 vssd1 vccd1 vccd1 sky130_fd_sc_hd__decap_8
XFILLER_13_337 vssd1 vssd1 vccd1 vccd1 sky130_ef_sc_hd__decap_12
XFILLER_15_54 vssd1 vssd1 vccd1 vccd1 sky130_fd_sc_hd__fill_2
XFILLER_31_75 vssd1 vssd1 vccd1 vccd1 sky130_fd_sc_hd__decap_4
Xoutput97 net97 vssd1 vssd1 vccd1 vccd1 chanx_left_out[3] sky130_fd_sc_hd__buf_2
Xoutput86 net86 vssd1 vssd1 vccd1 vccd1 chanx_left_out[10] sky130_fd_sc_hd__buf_2
XFILLER_63_237 vssd1 vssd1 vccd1 vccd1 sky130_fd_sc_hd__decap_4
XFILLER_63_215 vssd1 vssd1 vccd1 vccd1 sky130_fd_sc_hd__decap_8
XFILLER_48_289 vssd1 vssd1 vccd1 vccd1 sky130_ef_sc_hd__decap_12
XFILLER_48_245 vssd1 vssd1 vccd1 vccd1 sky130_fd_sc_hd__decap_6
XFILLER_16_164 vssd1 vssd1 vccd1 vccd1 sky130_fd_sc_hd__decap_4
XFILLER_16_197 vssd1 vssd1 vccd1 vccd1 sky130_fd_sc_hd__decap_4
XFILLER_8_352 vssd1 vssd1 vccd1 vccd1 sky130_ef_sc_hd__decap_12
XFILLER_12_370 vssd1 vssd1 vccd1 vccd1 sky130_ef_sc_hd__decap_12
X_0435_ mem_bottom_track_19.DFFR_1_.Q vssd1 vssd1 vccd1 vccd1 _0313_ sky130_fd_sc_hd__inv_2
X_0504_ mem_bottom_track_7.DFFR_2_.Q vssd1 vssd1 vccd1 vccd1 _0263_ sky130_fd_sc_hd__inv_2
XTAP_167 vssd1 vccd1 sky130_fd_sc_hd__tapvpwrvgnd_1
XTAP_156 vssd1 vccd1 sky130_fd_sc_hd__tapvpwrvgnd_1
XTAP_145 vssd1 vccd1 sky130_fd_sc_hd__tapvpwrvgnd_1
XTAP_134 vssd1 vccd1 sky130_fd_sc_hd__tapvpwrvgnd_1
XTAP_178 vssd1 vccd1 sky130_fd_sc_hd__tapvpwrvgnd_1
XTAP_189 vssd1 vccd1 sky130_fd_sc_hd__tapvpwrvgnd_1
XFILLER_54_226 vssd1 vssd1 vccd1 vccd1 sky130_fd_sc_hd__decap_8
XFILLER_54_215 vssd1 vssd1 vccd1 vccd1 sky130_fd_sc_hd__decap_8
XFILLER_53_281 vssd1 vssd1 vccd1 vccd1 sky130_ef_sc_hd__decap_12
XFILLER_53_270 vssd1 vssd1 vccd1 vccd1 sky130_fd_sc_hd__decap_8
XFILLER_26_75 vssd1 vssd1 vccd1 vccd1 sky130_fd_sc_hd__decap_4
XFILLER_42_85 vssd1 vssd1 vccd1 vccd1 sky130_ef_sc_hd__decap_12
XFILLER_42_41 vssd1 vssd1 vccd1 vccd1 sky130_ef_sc_hd__decap_12
XFILLER_5_333 vssd1 vssd1 vccd1 vccd1 sky130_fd_sc_hd__decap_3
XFILLER_3_57 vssd1 vssd1 vccd1 vccd1 sky130_fd_sc_hd__fill_2
XFILLER_5_366 vssd1 vssd1 vccd1 vccd1 sky130_ef_sc_hd__decap_12
XFILLER_59_329 vssd1 vssd1 vccd1 vccd1 sky130_fd_sc_hd__decap_6
X_0418_ mem_bottom_track_25.DFFR_0_.Q vssd1 vssd1 vccd1 vccd1 _0327_ sky130_fd_sc_hd__inv_2
XFILLER_27_204 vssd1 vssd1 vccd1 vccd1 sky130_fd_sc_hd__decap_4
XFILLER_50_251 vssd1 vssd1 vccd1 vccd1 sky130_fd_sc_hd__fill_1
XFILLER_35_281 vssd1 vssd1 vccd1 vccd1 sky130_fd_sc_hd__decap_4
XFILLER_27_237 vssd1 vssd1 vccd1 vccd1 sky130_fd_sc_hd__decap_4
XFILLER_6_108 vssd1 vssd1 vccd1 vccd1 sky130_fd_sc_hd__decap_4
XFILLER_10_159 vssd1 vssd1 vccd1 vccd1 sky130_fd_sc_hd__decap_4
XFILLER_12_44 vssd1 vssd1 vccd1 vccd1 sky130_fd_sc_hd__decap_4
XFILLER_2_314 vssd1 vssd1 vccd1 vccd1 sky130_fd_sc_hd__decap_4
XFILLER_37_63 vssd1 vssd1 vccd1 vccd1 sky130_fd_sc_hd__fill_1
XFILLER_37_52 vssd1 vssd1 vccd1 vccd1 sky130_fd_sc_hd__decap_4
XFILLER_26_270 vssd1 vssd1 vccd1 vccd1 sky130_fd_sc_hd__fill_1
XFILLER_5_141 vssd1 vssd1 vccd1 vccd1 sky130_fd_sc_hd__decap_4
Xclkbuf_4_6_0_prog_clk clknet_0_prog_clk vssd1 vssd1 vccd1 vccd1 clknet_4_6_0_prog_clk
+ sky130_fd_sc_hd__clkbuf_8
XFILLER_49_373 vssd1 vssd1 vccd1 vccd1 sky130_ef_sc_hd__decap_12
XFILLER_64_365 vssd1 vssd1 vccd1 vccd1 sky130_fd_sc_hd__fill_2
XFILLER_64_343 vssd1 vssd1 vccd1 vccd1 sky130_fd_sc_hd__decap_4
XFILLER_64_321 vssd1 vssd1 vccd1 vccd1 sky130_fd_sc_hd__decap_4
X_1183_ mux_bottom_track_15.INVTX1_0_.out _0297_ vssd1 vssd1 vccd1 vccd1 mux_bottom_track_15.mux_2level_tapbuf_basis_input2_mem1_0_out
+ sky130_fd_sc_hd__ebufn_2
XFILLER_17_270 vssd1 vssd1 vccd1 vccd1 sky130_fd_sc_hd__decap_8
XFILLER_17_281 vssd1 vssd1 vccd1 vccd1 sky130_fd_sc_hd__fill_2
XFILLER_32_251 vssd1 vssd1 vccd1 vccd1 sky130_fd_sc_hd__fill_1
XFILLER_59_137 vssd1 vssd1 vccd1 vccd1 sky130_ef_sc_hd__decap_12
XFILLER_58_29 vssd1 vssd1 vccd1 vccd1 sky130_ef_sc_hd__decap_12
X_0898_ clknet_4_6_0_prog_clk mem_left_track_17.DFFR_7_.Q _0011_ vssd1 vssd1 vccd1
+ vccd1 mem_left_track_25.DFFR_0_.Q sky130_fd_sc_hd__dfrtp_2
XFILLER_23_240 vssd1 vssd1 vccd1 vccd1 sky130_fd_sc_hd__decap_4
XFILLER_23_54 vssd1 vssd1 vccd1 vccd1 sky130_fd_sc_hd__fill_2
XFILLER_23_87 vssd1 vssd1 vccd1 vccd1 sky130_fd_sc_hd__decap_4
XFILLER_61_335 vssd1 vssd1 vccd1 vccd1 sky130_fd_sc_hd__fill_1
XFILLER_46_365 vssd1 vssd1 vccd1 vccd1 sky130_ef_sc_hd__decap_12
XFILLER_46_321 vssd1 vssd1 vccd1 vccd1 sky130_ef_sc_hd__decap_12
X_0821_ net73 vssd1 vssd1 vccd1 vccd1 _0127_ sky130_fd_sc_hd__buf_4
X_0752_ _0120_ vssd1 vssd1 vccd1 vccd1 _0113_ sky130_fd_sc_hd__inv_2
XFILLER_43_3 vssd1 vssd1 vccd1 vccd1 sky130_ef_sc_hd__decap_12
X_0683_ net28 vssd1 vssd1 vccd1 vccd1 mux_bottom_track_19.INVTX1_0_.out sky130_fd_sc_hd__inv_2
XFILLER_49_181 vssd1 vssd1 vccd1 vccd1 sky130_ef_sc_hd__decap_12
X_1166_ mux_bottom_track_5.mux_2level_tapbuf_basis_input3_mem3_0_out _0280_ vssd1
+ vssd1 vccd1 vccd1 mux_bottom_track_5.mux_2level_tapbuf_basis_input3_mem3_1_out sky130_fd_sc_hd__ebufn_2
X_1235_ net166 _0349_ vssd1 vssd1 vccd1 vccd1 mux_left_track_33.mux_2level_tapbuf_basis_input3_mem3_2_out
+ sky130_fd_sc_hd__ebufn_4
XFILLER_52_346 vssd1 vssd1 vccd1 vccd1 sky130_ef_sc_hd__decap_12
X_1097_ mux_left_track_9.INVTX1_6_.out _0211_ vssd1 vssd1 vccd1 vccd1 mux_left_track_9.mux_2level_tapbuf_basis_input4_mem4_1_out
+ sky130_fd_sc_hd__ebufn_4
XFILLER_20_221 vssd1 vssd1 vccd1 vccd1 sky130_fd_sc_hd__decap_4
XFILLER_43_335 vssd1 vssd1 vccd1 vccd1 sky130_fd_sc_hd__fill_1
XFILLER_34_20 vssd1 vssd1 vccd1 vccd1 sky130_fd_sc_hd__decap_8
XFILLER_28_365 vssd1 vssd1 vccd1 vccd1 sky130_ef_sc_hd__decap_12
XFILLER_50_41 vssd1 vssd1 vccd1 vccd1 sky130_ef_sc_hd__decap_12
XFILLER_7_225 vssd1 vssd1 vccd1 vccd1 sky130_fd_sc_hd__decap_4
XFILLER_11_221 vssd1 vssd1 vccd1 vccd1 sky130_fd_sc_hd__decap_3
XFILLER_11_298 vssd1 vssd1 vccd1 vccd1 sky130_fd_sc_hd__decap_4
XTAP_519 vssd1 vccd1 sky130_fd_sc_hd__tapvpwrvgnd_1
XTAP_508 vssd1 vccd1 sky130_fd_sc_hd__tapvpwrvgnd_1
XFILLER_50_85 vssd1 vssd1 vccd1 vccd1 sky130_ef_sc_hd__decap_12
X_1020_ net19 vssd1 vssd1 vccd1 vccd1 net118 sky130_fd_sc_hd__clkbuf_1
XFILLER_38_107 vssd1 vssd1 vccd1 vccd1 sky130_ef_sc_hd__decap_12
XFILLER_19_321 vssd1 vssd1 vccd1 vccd1 sky130_ef_sc_hd__decap_12
XFILLER_61_121 vssd1 vssd1 vccd1 vccd1 sky130_fd_sc_hd__decap_3
XFILLER_46_195 vssd1 vssd1 vccd1 vccd1 sky130_fd_sc_hd__fill_1
XFILLER_34_302 vssd1 vssd1 vccd1 vccd1 sky130_fd_sc_hd__decap_6
X_0804_ _0125_ vssd1 vssd1 vccd1 vccd1 _0040_ sky130_fd_sc_hd__inv_2
X_0735_ _0158_ vssd1 vssd1 vccd1 vccd1 _0097_ sky130_fd_sc_hd__inv_2
XFILLER_57_405 vssd1 vssd1 vccd1 vccd1 sky130_fd_sc_hd__fill_2
X_0666_ net40 vssd1 vssd1 vccd1 vccd1 mux_bottom_track_11.INVTX1_0_.out sky130_fd_sc_hd__inv_2
XFILLER_29_118 vssd1 vssd1 vccd1 vccd1 sky130_fd_sc_hd__decap_4
X_0597_ mem_right_track_0.DFFR_0_.Q vssd1 vssd1 vccd1 vccd1 _0169_ sky130_fd_sc_hd__inv_2
X_1149_ mux_bottom_track_7.INVTX1_2_.out _0263_ vssd1 vssd1 vccd1 vccd1 mux_bottom_track_7.mux_2level_tapbuf_basis_input3_mem3_0_out
+ sky130_fd_sc_hd__ebufn_2
XFILLER_25_335 vssd1 vssd1 vccd1 vccd1 sky130_fd_sc_hd__fill_1
X_1218_ mux_bottom_track_27.INVTX1_2_.out _0332_ vssd1 vssd1 vccd1 vccd1 mux_bottom_track_27.mux_2level_tapbuf_basis_input2_mem1_1_out
+ sky130_fd_sc_hd__ebufn_1
XFILLER_52_165 vssd1 vssd1 vccd1 vccd1 sky130_ef_sc_hd__decap_12
XFILLER_33_390 vssd1 vssd1 vccd1 vccd1 sky130_fd_sc_hd__fill_2
XFILLER_29_75 vssd1 vssd1 vccd1 vccd1 sky130_fd_sc_hd__decap_4
XFILLER_29_42 vssd1 vssd1 vccd1 vccd1 sky130_fd_sc_hd__decap_8
XFILLER_29_20 vssd1 vssd1 vccd1 vccd1 sky130_ef_sc_hd__decap_12
XFILLER_31_349 vssd1 vssd1 vccd1 vccd1 sky130_ef_sc_hd__decap_12
XFILLER_39_405 vssd1 vssd1 vccd1 vccd1 sky130_fd_sc_hd__fill_2
XTAP_349 vssd1 vccd1 sky130_fd_sc_hd__tapvpwrvgnd_1
XTAP_338 vssd1 vccd1 sky130_fd_sc_hd__tapvpwrvgnd_1
X_0520_ mem_right_track_32.DFFR_4_.Q vssd1 vssd1 vccd1 vccd1 _0244_ sky130_fd_sc_hd__inv_2
XTAP_327 vssd1 vccd1 sky130_fd_sc_hd__tapvpwrvgnd_1
XTAP_316 vssd1 vccd1 sky130_fd_sc_hd__tapvpwrvgnd_1
XTAP_305 vssd1 vccd1 sky130_fd_sc_hd__tapvpwrvgnd_1
X_0451_ mem_bottom_track_21.DFFR_0_.Q vssd1 vssd1 vccd1 vccd1 _0305_ sky130_fd_sc_hd__inv_2
X_1003_ net36 vssd1 vssd1 vccd1 vccd1 net97 sky130_fd_sc_hd__clkbuf_1
XFILLER_34_121 vssd1 vssd1 vccd1 vccd1 sky130_fd_sc_hd__fill_1
XFILLER_34_154 vssd1 vssd1 vccd1 vccd1 sky130_fd_sc_hd__decap_4
X_0718_ _0156_ vssd1 vssd1 vccd1 vccd1 _0082_ sky130_fd_sc_hd__inv_2
X_0649_ mux_bottom_track_7.mux_2level_tapbuf_basis_input3_mem3_1_out vssd1 vssd1 vccd1
+ vccd1 mux_bottom_track_7.out sky130_fd_sc_hd__inv_2
XFILLER_57_279 vssd1 vssd1 vccd1 vccd1 sky130_fd_sc_hd__fill_1
XFILLER_40_113 vssd1 vssd1 vccd1 vccd1 sky130_fd_sc_hd__decap_6
XFILLER_25_198 vssd1 vssd1 vccd1 vccd1 sky130_fd_sc_hd__decap_8
XFILLER_25_143 vssd1 vssd1 vccd1 vccd1 sky130_fd_sc_hd__decap_8
XFILLER_13_305 vssd1 vssd1 vccd1 vccd1 sky130_fd_sc_hd__decap_6
XFILLER_13_327 vssd1 vssd1 vccd1 vccd1 sky130_fd_sc_hd__decap_8
XFILLER_13_349 vssd1 vssd1 vccd1 vccd1 sky130_ef_sc_hd__decap_12
XFILLER_31_54 vssd1 vssd1 vccd1 vccd1 sky130_fd_sc_hd__fill_2
XFILLER_31_32 vssd1 vssd1 vccd1 vccd1 sky130_fd_sc_hd__decap_6
XFILLER_21_393 vssd1 vssd1 vccd1 vccd1 sky130_fd_sc_hd__fill_2
Xoutput98 net98 vssd1 vssd1 vccd1 vccd1 chanx_left_out[4] sky130_fd_sc_hd__buf_2
Xoutput87 net87 vssd1 vssd1 vccd1 vccd1 chanx_left_out[11] sky130_fd_sc_hd__buf_2
XFILLER_0_253 vssd1 vssd1 vccd1 vccd1 sky130_fd_sc_hd__fill_2
XFILLER_0_286 vssd1 vssd1 vccd1 vccd1 sky130_fd_sc_hd__decap_4
XFILLER_16_132 vssd1 vssd1 vccd1 vccd1 sky130_fd_sc_hd__fill_1
XFILLER_31_113 vssd1 vssd1 vccd1 vccd1 sky130_fd_sc_hd__decap_4
XFILLER_12_382 vssd1 vssd1 vccd1 vccd1 sky130_ef_sc_hd__decap_12
X_0434_ _0137_ vssd1 vssd1 vccd1 vccd1 _0317_ sky130_fd_sc_hd__clkbuf_1
X_0503_ mem_bottom_track_7.DFFR_0_.Q vssd1 vssd1 vccd1 vccd1 _0265_ sky130_fd_sc_hd__inv_2
XTAP_168 vssd1 vccd1 sky130_fd_sc_hd__tapvpwrvgnd_1
XTAP_157 vssd1 vccd1 sky130_fd_sc_hd__tapvpwrvgnd_1
XTAP_135 vssd1 vccd1 sky130_fd_sc_hd__tapvpwrvgnd_1
XTAP_146 vssd1 vccd1 sky130_fd_sc_hd__tapvpwrvgnd_1
XTAP_179 vssd1 vccd1 sky130_fd_sc_hd__tapvpwrvgnd_1
XFILLER_7_9 vssd1 vssd1 vccd1 vccd1 sky130_fd_sc_hd__decap_4
XFILLER_45_205 vssd1 vssd1 vccd1 vccd1 sky130_ef_sc_hd__decap_12
XFILLER_53_293 vssd1 vssd1 vccd1 vccd1 sky130_ef_sc_hd__decap_12
XFILLER_42_53 vssd1 vssd1 vccd1 vccd1 sky130_ef_sc_hd__decap_12
XFILLER_26_54 vssd1 vssd1 vccd1 vccd1 sky130_fd_sc_hd__decap_4
XFILLER_13_113 vssd1 vssd1 vccd1 vccd1 sky130_fd_sc_hd__fill_2
XFILLER_42_97 vssd1 vssd1 vccd1 vccd1 sky130_ef_sc_hd__decap_12
XFILLER_5_312 vssd1 vssd1 vccd1 vccd1 sky130_fd_sc_hd__decap_4
XFILLER_5_378 vssd1 vssd1 vccd1 vccd1 sky130_ef_sc_hd__decap_12
XFILLER_36_249 vssd1 vssd1 vccd1 vccd1 sky130_fd_sc_hd__decap_3
XFILLER_8_194 vssd1 vssd1 vccd1 vccd1 sky130_fd_sc_hd__fill_2
X_0417_ mem_bottom_track_25.DFFR_1_.Q vssd1 vssd1 vccd1 vccd1 _0325_ sky130_fd_sc_hd__inv_2
XFILLER_10_105 vssd1 vssd1 vccd1 vccd1 sky130_fd_sc_hd__fill_2
XFILLER_12_34 vssd1 vssd1 vccd1 vccd1 sky130_fd_sc_hd__decap_6
XFILLER_58_363 vssd1 vssd1 vccd1 vccd1 sky130_fd_sc_hd__fill_1
XFILLER_37_97 vssd1 vssd1 vccd1 vccd1 sky130_fd_sc_hd__decap_4
XFILLER_37_75 vssd1 vssd1 vccd1 vccd1 sky130_fd_sc_hd__decap_3
XFILLER_26_282 vssd1 vssd1 vccd1 vccd1 sky130_fd_sc_hd__fill_1
X_1188__159 vssd1 vssd1 vccd1 vccd1 net159 _1188__159/LO sky130_fd_sc_hd__conb_1
XFILLER_18_238 vssd1 vssd1 vccd1 vccd1 sky130_fd_sc_hd__decap_4
XFILLER_64_300 vssd1 vssd1 vccd1 vccd1 sky130_fd_sc_hd__decap_8
XFILLER_49_385 vssd1 vssd1 vccd1 vccd1 sky130_fd_sc_hd__decap_6
XFILLER_1_370 vssd1 vssd1 vccd1 vccd1 sky130_fd_sc_hd__decap_4
X_1182_ mux_bottom_track_15.mux_2level_tapbuf_basis_input2_mem1_0_out _0296_ vssd1
+ vssd1 vccd1 vccd1 mux_bottom_track_15.mux_2level_tapbuf_basis_input2_mem1_1_out
+ sky130_fd_sc_hd__ebufn_1
XFILLER_64_399 vssd1 vssd1 vccd1 vccd1 sky130_fd_sc_hd__decap_8
XFILLER_32_230 vssd1 vssd1 vccd1 vccd1 sky130_fd_sc_hd__fill_2
X_0897_ clknet_4_12_0_prog_clk mem_left_track_25.DFFR_0_.Q _0010_ vssd1 vssd1 vccd1
+ vccd1 mem_left_track_25.DFFR_1_.Q sky130_fd_sc_hd__dfrtp_2
XFILLER_59_149 vssd1 vssd1 vccd1 vccd1 sky130_ef_sc_hd__decap_12
XFILLER_59_105 vssd1 vssd1 vccd1 vccd1 sky130_fd_sc_hd__decap_6
XFILLER_4_90 vssd1 vssd1 vccd1 vccd1 sky130_fd_sc_hd__decap_4
XFILLER_23_296 vssd1 vssd1 vccd1 vccd1 sky130_fd_sc_hd__decap_4
XFILLER_23_285 vssd1 vssd1 vccd1 vccd1 sky130_fd_sc_hd__fill_1
XFILLER_23_274 vssd1 vssd1 vccd1 vccd1 sky130_fd_sc_hd__decap_6
XFILLER_23_66 vssd1 vssd1 vccd1 vccd1 sky130_fd_sc_hd__decap_4
XFILLER_23_33 vssd1 vssd1 vccd1 vccd1 sky130_fd_sc_hd__decap_4
XFILLER_3_3 vssd1 vssd1 vccd1 vccd1 sky130_fd_sc_hd__decap_3
XFILLER_2_156 vssd1 vssd1 vccd1 vccd1 sky130_fd_sc_hd__decap_4
XFILLER_48_85 vssd1 vssd1 vccd1 vccd1 sky130_ef_sc_hd__decap_12
XFILLER_48_41 vssd1 vssd1 vccd1 vccd1 sky130_ef_sc_hd__decap_12
XFILLER_46_333 vssd1 vssd1 vccd1 vccd1 sky130_ef_sc_hd__decap_12
XFILLER_0_26 vssd1 vssd1 vccd1 vccd1 sky130_fd_sc_hd__fill_2
XFILLER_46_377 vssd1 vssd1 vccd1 vccd1 sky130_ef_sc_hd__decap_12
X_0751_ _0120_ vssd1 vssd1 vccd1 vccd1 _0112_ sky130_fd_sc_hd__inv_2
XFILLER_9_57 vssd1 vssd1 vccd1 vccd1 sky130_fd_sc_hd__fill_2
XFILLER_14_285 vssd1 vssd1 vccd1 vccd1 sky130_fd_sc_hd__fill_1
X_0820_ _0126_ vssd1 vssd1 vccd1 vccd1 _0055_ sky130_fd_sc_hd__inv_2
X_0682_ mux_bottom_track_19.mux_2level_tapbuf_basis_input2_mem1_2_out vssd1 vssd1
+ vccd1 vccd1 mux_bottom_track_19.out sky130_fd_sc_hd__inv_2
XFILLER_36_3 vssd1 vssd1 vccd1 vccd1 sky130_fd_sc_hd__decap_4
XFILLER_52_314 vssd1 vssd1 vccd1 vccd1 sky130_fd_sc_hd__decap_4
XFILLER_49_193 vssd1 vssd1 vccd1 vccd1 sky130_ef_sc_hd__decap_12
X_1165_ mux_bottom_track_5.INVTX1_3_.out _0279_ vssd1 vssd1 vccd1 vccd1 mux_bottom_track_5.mux_2level_tapbuf_basis_input2_mem2_0_out
+ sky130_fd_sc_hd__ebufn_1
X_1234_ mux_left_track_33.INVTX1_7_.out _0348_ vssd1 vssd1 vccd1 vccd1 mux_left_track_33.mux_2level_tapbuf_basis_input3_mem3_2_out
+ sky130_fd_sc_hd__ebufn_4
X_1096_ mux_left_track_9.INVTX1_5_.out _0210_ vssd1 vssd1 vccd1 vccd1 mux_left_track_9.mux_2level_tapbuf_basis_input4_mem4_1_out
+ sky130_fd_sc_hd__ebufn_4
XFILLER_52_358 vssd1 vssd1 vccd1 vccd1 sky130_fd_sc_hd__decap_6
X_0949_ clknet_4_15_0_prog_clk mem_bottom_track_27.DFFR_0_.Q _0062_ vssd1 vssd1 vccd1
+ vccd1 mem_bottom_track_27.DFFR_1_.Q sky130_fd_sc_hd__dfrtp_1
XFILLER_18_11 vssd1 vssd1 vccd1 vccd1 sky130_fd_sc_hd__fill_2
XFILLER_55_141 vssd1 vssd1 vccd1 vccd1 sky130_ef_sc_hd__decap_12
XFILLER_28_377 vssd1 vssd1 vccd1 vccd1 sky130_ef_sc_hd__decap_12
XFILLER_51_391 vssd1 vssd1 vccd1 vccd1 sky130_fd_sc_hd__fill_1
XFILLER_50_53 vssd1 vssd1 vccd1 vccd1 sky130_ef_sc_hd__decap_12
XFILLER_50_20 vssd1 vssd1 vccd1 vccd1 sky130_fd_sc_hd__decap_8
XTAP_509 vssd1 vccd1 sky130_fd_sc_hd__tapvpwrvgnd_1
XFILLER_50_97 vssd1 vssd1 vccd1 vccd1 sky130_fd_sc_hd__decap_6
XFILLER_46_141 vssd1 vssd1 vccd1 vccd1 sky130_ef_sc_hd__decap_12
XFILLER_22_9 vssd1 vssd1 vccd1 vccd1 sky130_fd_sc_hd__decap_8
XFILLER_19_333 vssd1 vssd1 vccd1 vccd1 sky130_fd_sc_hd__decap_3
XFILLER_61_111 vssd1 vssd1 vccd1 vccd1 sky130_fd_sc_hd__fill_1
XFILLER_34_358 vssd1 vssd1 vccd1 vccd1 sky130_fd_sc_hd__decap_6
XFILLER_6_292 vssd1 vssd1 vccd1 vccd1 sky130_fd_sc_hd__decap_4
X_0665_ mux_bottom_track_11.mux_2level_tapbuf_basis_input2_mem1_1_out vssd1 vssd1
+ vccd1 vccd1 mux_bottom_track_11.out sky130_fd_sc_hd__inv_2
X_0803_ _0125_ vssd1 vssd1 vccd1 vccd1 _0039_ sky130_fd_sc_hd__inv_2
X_0734_ _0158_ vssd1 vssd1 vccd1 vccd1 _0096_ sky130_fd_sc_hd__inv_2
X_0596_ mem_right_track_8.DFFR_1_.Q vssd1 vssd1 vccd1 vccd1 _0174_ sky130_fd_sc_hd__inv_2
XFILLER_52_177 vssd1 vssd1 vccd1 vccd1 sky130_ef_sc_hd__decap_12
XFILLER_52_111 vssd1 vssd1 vccd1 vccd1 sky130_ef_sc_hd__decap_12