*SPEF "ieee 1481-1999"
*DESIGN "cbx_1__1_"
*DATE "11:11:11 Fri 11 11, 1111"
*VENDOR "OpenRCX"
*PROGRAM "Parallel Extraction"
*VERSION "1.0"
*DESIGN_FLOW "NAME_SCOPE LOCAL" "PIN_CAP NONE"
*DIVIDER /
*DELIMITER :
*BUS_DELIMITER []
*T_UNIT 1 NS
*C_UNIT 1 PF
*R_UNIT 1 OHM
*L_UNIT 1 HENRY

*NAME_MAP
*1 bottom_grid_top_width_0_height_0_subtile_0__pin_I_0_
*2 bottom_grid_top_width_0_height_0_subtile_0__pin_I_4_
*3 bottom_grid_top_width_0_height_0_subtile_0__pin_I_8_
*4 bottom_grid_top_width_0_height_0_subtile_0__pin_clk_0_
*5 ccff_head
*6 ccff_tail
*7 chanx_left_in[0]
*8 chanx_left_in[10]
*9 chanx_left_in[11]
*10 chanx_left_in[12]
*11 chanx_left_in[13]
*12 chanx_left_in[14]
*13 chanx_left_in[15]
*14 chanx_left_in[16]
*15 chanx_left_in[17]
*16 chanx_left_in[18]
*17 chanx_left_in[1]
*18 chanx_left_in[2]
*19 chanx_left_in[3]
*20 chanx_left_in[4]
*21 chanx_left_in[5]
*22 chanx_left_in[6]
*23 chanx_left_in[7]
*24 chanx_left_in[8]
*25 chanx_left_in[9]
*26 chanx_left_out[0]
*27 chanx_left_out[10]
*28 chanx_left_out[11]
*29 chanx_left_out[12]
*30 chanx_left_out[13]
*31 chanx_left_out[14]
*32 chanx_left_out[15]
*33 chanx_left_out[16]
*34 chanx_left_out[17]
*35 chanx_left_out[18]
*36 chanx_left_out[1]
*37 chanx_left_out[2]
*38 chanx_left_out[3]
*39 chanx_left_out[4]
*40 chanx_left_out[5]
*41 chanx_left_out[6]
*42 chanx_left_out[7]
*43 chanx_left_out[8]
*44 chanx_left_out[9]
*45 chanx_right_in[0]
*46 chanx_right_in[10]
*47 chanx_right_in[11]
*48 chanx_right_in[12]
*49 chanx_right_in[13]
*50 chanx_right_in[14]
*51 chanx_right_in[15]
*52 chanx_right_in[16]
*53 chanx_right_in[17]
*54 chanx_right_in[18]
*55 chanx_right_in[1]
*56 chanx_right_in[2]
*57 chanx_right_in[3]
*58 chanx_right_in[4]
*59 chanx_right_in[5]
*60 chanx_right_in[6]
*61 chanx_right_in[7]
*62 chanx_right_in[8]
*63 chanx_right_in[9]
*64 chanx_right_out[0]
*65 chanx_right_out[10]
*66 chanx_right_out[11]
*67 chanx_right_out[12]
*68 chanx_right_out[13]
*69 chanx_right_out[14]
*70 chanx_right_out[15]
*71 chanx_right_out[16]
*72 chanx_right_out[17]
*73 chanx_right_out[18]
*74 chanx_right_out[1]
*75 chanx_right_out[2]
*76 chanx_right_out[3]
*77 chanx_right_out[4]
*78 chanx_right_out[5]
*79 chanx_right_out[6]
*80 chanx_right_out[7]
*81 chanx_right_out[8]
*82 chanx_right_out[9]
*83 pReset
*84 prog_clk
*85 top_grid_bottom_width_0_height_0_subtile_0__pin_I_10_
*86 top_grid_bottom_width_0_height_0_subtile_0__pin_I_2_
*87 top_grid_bottom_width_0_height_0_subtile_0__pin_I_6_
*90 _000_
*91 _001_
*92 _002_
*93 _003_
*94 _004_
*95 _005_
*96 _006_
*97 _007_
*98 _008_
*99 _009_
*100 _010_
*101 _011_
*102 _012_
*103 _013_
*104 _014_
*105 _015_
*106 _016_
*107 _017_
*108 _018_
*109 _019_
*110 _020_
*111 _021_
*112 _022_
*113 _023_
*114 _024_
*115 _025_
*116 _026_
*117 _027_
*118 _028_
*119 _029_
*120 _030_
*121 _031_
*122 _032_
*123 _033_
*124 _034_
*125 _035_
*126 _036_
*127 _037_
*128 _038_
*129 _039_
*130 _040_
*131 _041_
*132 _042_
*133 _043_
*134 _044_
*135 _045_
*136 _046_
*137 _047_
*138 _048_
*139 _049_
*140 _050_
*141 _051_
*142 _052_
*143 _053_
*144 _054_
*145 _055_
*146 _056_
*147 _057_
*148 _058_
*149 _059_
*150 _060_
*151 _061_
*152 _062_
*153 _063_
*154 _064_
*155 _065_
*156 _066_
*157 _067_
*158 _068_
*159 _069_
*160 _070_
*161 _071_
*162 _072_
*163 _073_
*164 _074_
*165 _075_
*166 _076_
*167 _077_
*168 _078_
*169 _079_
*170 _080_
*171 _081_
*172 _082_
*173 _083_
*174 _084_
*175 _085_
*176 _086_
*177 _087_
*178 _088_
*179 _089_
*180 _090_
*181 _091_
*182 _092_
*183 _093_
*184 _094_
*185 _095_
*186 _096_
*187 _097_
*188 _098_
*189 _099_
*190 _100_
*191 _101_
*192 _102_
*193 _103_
*194 _104_
*195 _105_
*196 _106_
*197 _107_
*198 _108_
*199 _109_
*200 _110_
*201 _111_
*202 _112_
*203 _113_
*204 _114_
*205 _115_
*206 _116_
*207 _117_
*208 _118_
*209 _119_
*210 _120_
*211 _121_
*212 _122_
*213 _123_
*214 _124_
*215 _125_
*216 _126_
*217 mem_bottom_ipin_0\.DFFR_0_\.Q
*218 mem_bottom_ipin_0\.DFFR_1_\.Q
*219 mem_bottom_ipin_0\.DFFR_2_\.Q
*220 mem_bottom_ipin_0\.DFFR_3_\.Q
*221 mem_bottom_ipin_0\.DFFR_4_\.Q
*222 mem_bottom_ipin_0\.DFFR_5_\.Q
*223 mem_bottom_ipin_1\.DFFR_0_\.Q
*224 mem_bottom_ipin_1\.DFFR_1_\.Q
*225 mem_bottom_ipin_1\.DFFR_2_\.Q
*226 mem_bottom_ipin_1\.DFFR_3_\.Q
*227 mem_bottom_ipin_1\.DFFR_4_\.Q
*228 mem_bottom_ipin_1\.DFFR_5_\.Q
*229 mem_bottom_ipin_2\.DFFR_0_\.Q
*230 mem_bottom_ipin_2\.DFFR_1_\.Q
*231 mem_bottom_ipin_2\.DFFR_2_\.Q
*232 mem_bottom_ipin_2\.DFFR_3_\.Q
*233 mem_bottom_ipin_2\.DFFR_4_\.Q
*234 mem_bottom_ipin_2\.DFFR_5_\.Q
*235 mem_top_ipin_0\.DFFR_0_\.Q
*236 mem_top_ipin_0\.DFFR_1_\.Q
*237 mem_top_ipin_0\.DFFR_2_\.Q
*238 mem_top_ipin_0\.DFFR_3_\.Q
*239 mem_top_ipin_0\.DFFR_4_\.Q
*240 mem_top_ipin_0\.DFFR_5_\.Q
*241 mem_top_ipin_1\.DFFR_0_\.Q
*242 mem_top_ipin_1\.DFFR_1_\.Q
*243 mem_top_ipin_1\.DFFR_2_\.Q
*244 mem_top_ipin_1\.DFFR_3_\.Q
*245 mem_top_ipin_1\.DFFR_4_\.Q
*246 mem_top_ipin_1\.DFFR_5_\.Q
*247 mem_top_ipin_2\.DFFR_0_\.Q
*248 mem_top_ipin_2\.DFFR_1_\.Q
*249 mem_top_ipin_2\.DFFR_2_\.Q
*250 mem_top_ipin_2\.DFFR_3_\.Q
*251 mem_top_ipin_2\.DFFR_4_\.Q
*252 mem_top_ipin_2\.DFFR_5_\.Q
*253 mem_top_ipin_3\.DFFR_0_\.Q
*254 mem_top_ipin_3\.DFFR_1_\.Q
*255 mem_top_ipin_3\.DFFR_2_\.Q
*256 mem_top_ipin_3\.DFFR_3_\.Q
*257 mem_top_ipin_3\.DFFR_4_\.Q
*258 mux_bottom_ipin_0\.INVTX1_0_\.out
*259 mux_bottom_ipin_0\.INVTX1_1_\.out
*260 mux_bottom_ipin_0\.INVTX1_2_\.out
*261 mux_bottom_ipin_0\.INVTX1_3_\.out
*262 mux_bottom_ipin_0\.INVTX1_4_\.out
*263 mux_bottom_ipin_0\.INVTX1_5_\.out
*264 mux_bottom_ipin_0\.INVTX1_6_\.out
*265 mux_bottom_ipin_0\.INVTX1_7_\.out
*266 mux_bottom_ipin_0\.mux_2level_tapbuf_basis_input3_mem3_0_out
*267 mux_bottom_ipin_0\.mux_2level_tapbuf_basis_input3_mem3_1_out
*268 mux_bottom_ipin_0\.mux_2level_tapbuf_basis_input3_mem3_2_out
*269 mux_bottom_ipin_0\.mux_2level_tapbuf_basis_input3_mem3_3_out
*270 mux_bottom_ipin_1\.INVTX1_2_\.out
*271 mux_bottom_ipin_1\.INVTX1_3_\.out
*272 mux_bottom_ipin_1\.INVTX1_4_\.out
*273 mux_bottom_ipin_1\.INVTX1_5_\.out
*274 mux_bottom_ipin_1\.INVTX1_6_\.out
*275 mux_bottom_ipin_1\.INVTX1_7_\.out
*276 mux_bottom_ipin_1\.mux_2level_tapbuf_basis_input3_mem3_0_out
*277 mux_bottom_ipin_1\.mux_2level_tapbuf_basis_input3_mem3_1_out
*278 mux_bottom_ipin_1\.mux_2level_tapbuf_basis_input3_mem3_2_out
*279 mux_bottom_ipin_1\.mux_2level_tapbuf_basis_input3_mem3_3_out
*280 mux_bottom_ipin_2\.INVTX1_2_\.out
*281 mux_bottom_ipin_2\.INVTX1_3_\.out
*282 mux_bottom_ipin_2\.INVTX1_4_\.out
*283 mux_bottom_ipin_2\.INVTX1_5_\.out
*284 mux_bottom_ipin_2\.mux_2level_tapbuf_basis_input3_mem3_0_out
*285 mux_bottom_ipin_2\.mux_2level_tapbuf_basis_input3_mem3_1_out
*286 mux_bottom_ipin_2\.mux_2level_tapbuf_basis_input3_mem3_2_out
*287 mux_top_ipin_0\.INVTX1_2_\.out
*288 mux_top_ipin_0\.INVTX1_3_\.out
*289 mux_top_ipin_0\.INVTX1_4_\.out
*290 mux_top_ipin_0\.INVTX1_5_\.out
*291 mux_top_ipin_0\.INVTX1_6_\.out
*292 mux_top_ipin_0\.INVTX1_7_\.out
*293 mux_top_ipin_0\.mux_2level_tapbuf_basis_input3_mem3_0_out
*294 mux_top_ipin_0\.mux_2level_tapbuf_basis_input3_mem3_1_out
*295 mux_top_ipin_0\.mux_2level_tapbuf_basis_input3_mem3_2_out
*296 mux_top_ipin_0\.mux_2level_tapbuf_basis_input3_mem3_3_out
*297 mux_top_ipin_1\.INVTX1_2_\.out
*298 mux_top_ipin_1\.INVTX1_3_\.out
*299 mux_top_ipin_1\.INVTX1_4_\.out
*300 mux_top_ipin_1\.INVTX1_5_\.out
*301 mux_top_ipin_1\.INVTX1_6_\.out
*302 mux_top_ipin_1\.INVTX1_7_\.out
*303 mux_top_ipin_1\.mux_2level_tapbuf_basis_input3_mem3_0_out
*304 mux_top_ipin_1\.mux_2level_tapbuf_basis_input3_mem3_1_out
*305 mux_top_ipin_1\.mux_2level_tapbuf_basis_input3_mem3_2_out
*306 mux_top_ipin_1\.mux_2level_tapbuf_basis_input3_mem3_3_out
*307 mux_top_ipin_2\.INVTX1_2_\.out
*308 mux_top_ipin_2\.INVTX1_3_\.out
*309 mux_top_ipin_2\.INVTX1_6_\.out
*310 mux_top_ipin_2\.INVTX1_7_\.out
*311 mux_top_ipin_2\.mux_2level_tapbuf_basis_input3_mem3_0_out
*312 mux_top_ipin_2\.mux_2level_tapbuf_basis_input3_mem3_1_out
*313 mux_top_ipin_2\.mux_2level_tapbuf_basis_input3_mem3_2_out
*314 mux_top_ipin_2\.mux_2level_tapbuf_basis_input3_mem3_3_out
*315 mux_top_ipin_3\.mux_2level_tapbuf_basis_input3_mem3_0_out
*316 mux_top_ipin_3\.mux_2level_tapbuf_basis_input3_mem3_1_out
*317 mux_top_ipin_3\.mux_2level_tapbuf_basis_input3_mem3_2_out
*318 mux_top_ipin_3\.mux_2level_tapbuf_basis_input3_mem3_3_out
*319 net1
*320 net10
*321 net11
*322 net12
*323 net13
*324 net14
*325 net15
*326 net16
*327 net17
*328 net18
*329 net19
*330 net2
*331 net20
*332 net21
*333 net22
*334 net23
*335 net24
*336 net25
*337 net26
*338 net27
*339 net28
*340 net29
*341 net3
*342 net30
*343 net31
*344 net32
*345 net33
*346 net34
*347 net35
*348 net36
*349 net37
*350 net38
*351 net39
*352 net4
*353 net40
*354 net41
*355 net42
*356 net43
*357 net44
*358 net45
*359 net46
*360 net47
*361 net48
*362 net49
*363 net5
*364 net50
*365 net51
*366 net52
*367 net53
*368 net54
*369 net55
*370 net56
*371 net57
*372 net58
*373 net59
*374 net6
*375 net60
*376 net61
*377 net62
*378 net63
*379 net64
*380 net65
*381 net66
*382 net67
*383 net68
*384 net69
*385 net7
*386 net70
*387 net71
*388 net72
*389 net73
*390 net74
*391 net75
*392 net76
*393 net77
*394 net78
*395 net79
*396 net8
*397 net80
*398 net81
*399 net82
*400 net83
*401 net84
*402 net85
*403 net86
*404 net87
*405 net88
*406 net89
*407 net9
*408 net90
*409 net91
*410 net92
*411 net93
*412 ANTENNA__137__A
*413 ANTENNA__142__A
*414 ANTENNA__145__A
*415 ANTENNA__147__A
*416 ANTENNA__149__A
*417 ANTENNA__153__A
*418 ANTENNA__157__A
*419 ANTENNA__158__A
*420 ANTENNA__161__A
*421 ANTENNA__162__A
*422 ANTENNA__165__A
*423 ANTENNA__166__A
*424 ANTENNA__180__A
*425 ANTENNA__181__A
*426 ANTENNA__182__A
*427 ANTENNA__184__A
*428 ANTENNA__185__A
*429 ANTENNA__186__A
*430 ANTENNA__188__A
*431 ANTENNA__189__A
*432 ANTENNA__190__A
*433 ANTENNA__192__A
*434 ANTENNA__193__A
*435 ANTENNA__194__A
*436 ANTENNA__196__A
*437 ANTENNA__197__A
*438 ANTENNA__198__A
*439 ANTENNA__200__A
*440 ANTENNA__201__A
*441 ANTENNA__202__A
*442 ANTENNA__210__A
*443 ANTENNA__212__A
*444 ANTENNA__214__A
*445 ANTENNA__215__A
*446 ANTENNA__217__A
*447 ANTENNA__220__A
*448 ANTENNA__221__A
*449 ANTENNA__222__A
*450 ANTENNA__227__A
*451 ANTENNA__232__A
*452 ANTENNA__233__A
*453 ANTENNA__236__A
*454 ANTENNA__237__A
*455 ANTENNA__238__A
*456 ANTENNA__239__A
*457 ANTENNA__240__A
*458 ANTENNA__242__A
*459 ANTENNA__243__A
*460 ANTENNA__244__A
*461 ANTENNA__245__A
*462 ANTENNA__248__A
*463 ANTENNA__249__A
*464 ANTENNA__250__A
*465 ANTENNA__254__A
*466 ANTENNA__255__A
*467 ANTENNA__256__A
*468 ANTENNA__267__A
*469 ANTENNA__278__A
*470 ANTENNA__289__A
*471 ANTENNA__300__A
*472 ANTENNA__301__A
*473 ANTENNA__302__CLK
*474 ANTENNA__303__CLK
*475 ANTENNA__304__CLK
*476 ANTENNA__304__D
*477 ANTENNA__305__CLK
*478 ANTENNA__306__CLK
*479 ANTENNA__307__CLK
*480 ANTENNA__307__D
*481 ANTENNA__308__CLK
*482 ANTENNA__309__CLK
*483 ANTENNA__310__CLK
*484 ANTENNA__310__D
*485 ANTENNA__311__CLK
*486 ANTENNA__311__D
*487 ANTENNA__312__CLK
*488 ANTENNA__312__D
*489 ANTENNA__313__CLK
*490 ANTENNA__314__CLK
*491 ANTENNA__315__CLK
*492 ANTENNA__316__CLK
*493 ANTENNA__316__D
*494 ANTENNA__317__CLK
*495 ANTENNA__317__D
*496 ANTENNA__318__CLK
*497 ANTENNA__318__D
*498 ANTENNA__319__CLK
*499 ANTENNA__320__CLK
*500 ANTENNA__321__CLK
*501 ANTENNA__322__CLK
*502 ANTENNA__323__CLK
*503 ANTENNA__324__CLK
*504 ANTENNA__325__CLK
*505 ANTENNA__326__CLK
*506 ANTENNA__327__CLK
*507 ANTENNA__328__CLK
*508 ANTENNA__328__D
*509 ANTENNA__329__CLK
*510 ANTENNA__329__D
*511 ANTENNA__330__CLK
*512 ANTENNA__331__CLK
*513 ANTENNA__332__CLK
*514 ANTENNA__333__CLK
*515 ANTENNA__334__CLK
*516 ANTENNA__334__D
*517 ANTENNA__335__CLK
*518 ANTENNA__336__CLK
*519 ANTENNA__337__CLK
*520 ANTENNA__338__CLK
*521 ANTENNA__339__CLK
*522 ANTENNA__340__CLK
*523 ANTENNA__341__CLK
*524 ANTENNA__341__D
*525 ANTENNA__342__CLK
*526 ANTENNA__343__CLK
*527 ANTENNA__352__A
*528 ANTENNA__353__A
*529 ANTENNA__354__A
*530 ANTENNA__355__A
*531 ANTENNA__357__A
*532 ANTENNA__358__A
*533 ANTENNA__359__A
*534 ANTENNA__360__A
*535 ANTENNA__363__A
*536 ANTENNA__365__A
*537 ANTENNA__369__A
*538 ANTENNA__372__A
*539 ANTENNA__373__A
*540 ANTENNA__374__A
*541 ANTENNA__380__A
*542 ANTENNA__381__A
*543 ANTENNA__382__A
*544 ANTENNA__383__A
*545 ANTENNA__384__A
*546 ANTENNA__385__A
*547 ANTENNA__386__A
*548 ANTENNA__403__A
*549 ANTENNA__423__A
*550 ANTENNA__431__A
*551 ANTENNA_input10_A
*552 ANTENNA_input11_A
*553 ANTENNA_input12_A
*554 ANTENNA_input13_A
*555 ANTENNA_input14_A
*556 ANTENNA_input15_A
*557 ANTENNA_input16_A
*558 ANTENNA_input17_A
*559 ANTENNA_input18_A
*560 ANTENNA_input19_A
*561 ANTENNA_input1_A
*562 ANTENNA_input20_A
*563 ANTENNA_input21_A
*564 ANTENNA_input22_A
*565 ANTENNA_input23_A
*566 ANTENNA_input24_A
*567 ANTENNA_input25_A
*568 ANTENNA_input26_A
*569 ANTENNA_input27_A
*570 ANTENNA_input28_A
*571 ANTENNA_input29_A
*572 ANTENNA_input2_A
*573 ANTENNA_input30_A
*574 ANTENNA_input31_A
*575 ANTENNA_input32_A
*576 ANTENNA_input33_A
*577 ANTENNA_input34_A
*578 ANTENNA_input35_A
*579 ANTENNA_input36_A
*580 ANTENNA_input37_A
*581 ANTENNA_input38_A
*582 ANTENNA_input39_A
*583 ANTENNA_input3_A
*584 ANTENNA_input40_A
*585 ANTENNA_input4_A
*586 ANTENNA_input5_A
*587 ANTENNA_input6_A
*588 ANTENNA_input7_A
*589 ANTENNA_input8_A
*590 ANTENNA_input9_A
*591 ANTENNA_output45_A
*592 ANTENNA_output51_A
*593 ANTENNA_output64_A
*594 ANTENNA_output71_A
*595 ANTENNA_output73_A
*596 ANTENNA_output75_A
*597 ANTENNA_output82_A
*598 FILLER_0_105
*599 FILLER_0_111
*600 FILLER_0_113
*601 FILLER_0_119
*602 FILLER_0_131
*603 FILLER_0_138
*604 FILLER_0_141
*605 FILLER_0_145
*606 FILLER_0_149
*607 FILLER_0_154
*608 FILLER_0_16
*609 FILLER_0_162
*610 FILLER_0_166
*611 FILLER_0_169
*612 FILLER_0_175
*613 FILLER_0_187
*614 FILLER_0_191
*615 FILLER_0_194
*616 FILLER_0_197
*617 FILLER_0_202
*618 FILLER_0_210
*619 FILLER_0_216
*620 FILLER_0_222
*621 FILLER_0_225
*622 FILLER_0_231
*623 FILLER_0_243
*624 FILLER_0_247
*625 FILLER_0_250
*626 FILLER_0_253
*627 FILLER_0_26
*628 FILLER_0_265
*629 FILLER_0_273
*630 FILLER_0_279
*631 FILLER_0_281
*632 FILLER_0_287
*633 FILLER_0_29
*634 FILLER_0_299
*635 FILLER_0_3
*636 FILLER_0_303
*637 FILLER_0_306
*638 FILLER_0_309
*639 FILLER_0_321
*640 FILLER_0_329
*641 FILLER_0_33
*642 FILLER_0_335
*643 FILLER_0_337
*644 FILLER_0_343
*645 FILLER_0_351
*646 FILLER_0_354
*647 FILLER_0_362
*648 FILLER_0_365
*649 FILLER_0_369
*650 FILLER_0_37
*651 FILLER_0_373
*652 FILLER_0_384
*653 FILLER_0_42
*654 FILLER_0_54
*655 FILLER_0_57
*656 FILLER_0_63
*657 FILLER_0_75
*658 FILLER_0_79
*659 FILLER_0_82
*660 FILLER_0_85
*661 FILLER_0_9
*662 FILLER_0_97
*663 FILLER_10_109
*664 FILLER_10_121
*665 FILLER_10_133
*666 FILLER_10_139
*667 FILLER_10_141
*668 FILLER_10_15
*669 FILLER_10_153
*670 FILLER_10_157
*671 FILLER_10_161
*672 FILLER_10_173
*673 FILLER_10_185
*674 FILLER_10_193
*675 FILLER_10_197
*676 FILLER_10_209
*677 FILLER_10_221
*678 FILLER_10_233
*679 FILLER_10_245
*680 FILLER_10_251
*681 FILLER_10_253
*682 FILLER_10_265
*683 FILLER_10_27
*684 FILLER_10_277
*685 FILLER_10_289
*686 FILLER_10_29
*687 FILLER_10_3
*688 FILLER_10_301
*689 FILLER_10_307
*690 FILLER_10_309
*691 FILLER_10_321
*692 FILLER_10_333
*693 FILLER_10_345
*694 FILLER_10_357
*695 FILLER_10_363
*696 FILLER_10_365
*697 FILLER_10_377
*698 FILLER_10_385
*699 FILLER_10_41
*700 FILLER_10_53
*701 FILLER_10_65
*702 FILLER_10_77
*703 FILLER_10_83
*704 FILLER_10_85
*705 FILLER_10_97
*706 FILLER_11_108
*707 FILLER_11_113
*708 FILLER_11_125
*709 FILLER_11_137
*710 FILLER_11_149
*711 FILLER_11_155
*712 FILLER_11_161
*713 FILLER_11_167
*714 FILLER_11_169
*715 FILLER_11_181
*716 FILLER_11_19
*717 FILLER_11_193
*718 FILLER_11_205
*719 FILLER_11_217
*720 FILLER_11_223
*721 FILLER_11_225
*722 FILLER_11_237
*723 FILLER_11_249
*724 FILLER_11_256
*725 FILLER_11_268
*726 FILLER_11_281
*727 FILLER_11_293
*728 FILLER_11_3
*729 FILLER_11_305
*730 FILLER_11_31
*731 FILLER_11_317
*732 FILLER_11_329
*733 FILLER_11_335
*734 FILLER_11_337
*735 FILLER_11_349
*736 FILLER_11_361
*737 FILLER_11_376
*738 FILLER_11_384
*739 FILLER_11_43
*740 FILLER_11_55
*741 FILLER_11_57
*742 FILLER_11_69
*743 FILLER_11_7
*744 FILLER_11_81
*745 FILLER_11_93
*746 FILLER_12_109
*747 FILLER_12_121
*748 FILLER_12_133
*749 FILLER_12_139
*750 FILLER_12_141
*751 FILLER_12_15
*752 FILLER_12_153
*753 FILLER_12_165
*754 FILLER_12_177
*755 FILLER_12_189
*756 FILLER_12_195
*757 FILLER_12_197
*758 FILLER_12_209
*759 FILLER_12_221
*760 FILLER_12_233
*761 FILLER_12_245
*762 FILLER_12_251
*763 FILLER_12_253
*764 FILLER_12_265
*765 FILLER_12_27
*766 FILLER_12_277
*767 FILLER_12_289
*768 FILLER_12_29
*769 FILLER_12_3
*770 FILLER_12_301
*771 FILLER_12_307
*772 FILLER_12_309
*773 FILLER_12_321
*774 FILLER_12_333
*775 FILLER_12_345
*776 FILLER_12_357
*777 FILLER_12_363
*778 FILLER_12_365
*779 FILLER_12_377
*780 FILLER_12_385
*781 FILLER_12_41
*782 FILLER_12_53
*783 FILLER_12_65
*784 FILLER_12_77
*785 FILLER_12_83
*786 FILLER_12_85
*787 FILLER_12_97
*788 FILLER_13_105
*789 FILLER_13_111
*790 FILLER_13_113
*791 FILLER_13_125
*792 FILLER_13_137
*793 FILLER_13_149
*794 FILLER_13_15
*795 FILLER_13_161
*796 FILLER_13_167
*797 FILLER_13_169
*798 FILLER_13_181
*799 FILLER_13_193
*800 FILLER_13_205
*801 FILLER_13_217
*802 FILLER_13_223
*803 FILLER_13_225
*804 FILLER_13_237
*805 FILLER_13_249
*806 FILLER_13_261
*807 FILLER_13_27
*808 FILLER_13_273
*809 FILLER_13_279
*810 FILLER_13_281
*811 FILLER_13_293
*812 FILLER_13_3
*813 FILLER_13_305
*814 FILLER_13_317
*815 FILLER_13_329
*816 FILLER_13_335
*817 FILLER_13_337
*818 FILLER_13_349
*819 FILLER_13_361
*820 FILLER_13_375
*821 FILLER_13_382
*822 FILLER_13_39
*823 FILLER_13_48
*824 FILLER_13_57
*825 FILLER_13_69
*826 FILLER_13_81
*827 FILLER_13_93
*828 FILLER_14_109
*829 FILLER_14_121
*830 FILLER_14_133
*831 FILLER_14_139
*832 FILLER_14_141
*833 FILLER_14_15
*834 FILLER_14_153
*835 FILLER_14_165
*836 FILLER_14_177
*837 FILLER_14_189
*838 FILLER_14_195
*839 FILLER_14_197
*840 FILLER_14_209
*841 FILLER_14_221
*842 FILLER_14_233
*843 FILLER_14_245
*844 FILLER_14_251
*845 FILLER_14_253
*846 FILLER_14_265
*847 FILLER_14_27
*848 FILLER_14_277
*849 FILLER_14_289
*850 FILLER_14_29
*851 FILLER_14_3
*852 FILLER_14_301
*853 FILLER_14_307
*854 FILLER_14_309
*855 FILLER_14_321
*856 FILLER_14_333
*857 FILLER_14_345
*858 FILLER_14_357
*859 FILLER_14_363
*860 FILLER_14_365
*861 FILLER_14_377
*862 FILLER_14_381
*863 FILLER_14_384
*864 FILLER_14_41
*865 FILLER_14_53
*866 FILLER_14_65
*867 FILLER_14_77
*868 FILLER_14_83
*869 FILLER_14_85
*870 FILLER_14_97
*871 FILLER_15_105
*872 FILLER_15_111
*873 FILLER_15_113
*874 FILLER_15_125
*875 FILLER_15_137
*876 FILLER_15_149
*877 FILLER_15_161
*878 FILLER_15_167
*879 FILLER_15_169
*880 FILLER_15_181
*881 FILLER_15_193
*882 FILLER_15_205
*883 FILLER_15_21
*884 FILLER_15_217
*885 FILLER_15_223
*886 FILLER_15_225
*887 FILLER_15_237
*888 FILLER_15_249
*889 FILLER_15_261
*890 FILLER_15_273
*891 FILLER_15_279
*892 FILLER_15_281
*893 FILLER_15_293
*894 FILLER_15_3
*895 FILLER_15_305
*896 FILLER_15_317
*897 FILLER_15_329
*898 FILLER_15_33
*899 FILLER_15_335
*900 FILLER_15_337
*901 FILLER_15_349
*902 FILLER_15_361
*903 FILLER_15_373
*904 FILLER_15_384
*905 FILLER_15_45
*906 FILLER_15_53
*907 FILLER_15_57
*908 FILLER_15_69
*909 FILLER_15_81
*910 FILLER_15_9
*911 FILLER_15_93
*912 FILLER_16_109
*913 FILLER_16_121
*914 FILLER_16_133
*915 FILLER_16_139
*916 FILLER_16_141
*917 FILLER_16_15
*918 FILLER_16_153
*919 FILLER_16_165
*920 FILLER_16_177
*921 FILLER_16_189
*922 FILLER_16_195
*923 FILLER_16_197
*924 FILLER_16_209
*925 FILLER_16_221
*926 FILLER_16_233
*927 FILLER_16_245
*928 FILLER_16_251
*929 FILLER_16_253
*930 FILLER_16_265
*931 FILLER_16_27
*932 FILLER_16_277
*933 FILLER_16_289
*934 FILLER_16_29
*935 FILLER_16_3
*936 FILLER_16_301
*937 FILLER_16_307
*938 FILLER_16_309
*939 FILLER_16_321
*940 FILLER_16_333
*941 FILLER_16_345
*942 FILLER_16_357
*943 FILLER_16_363
*944 FILLER_16_365
*945 FILLER_16_377
*946 FILLER_16_385
*947 FILLER_16_41
*948 FILLER_16_53
*949 FILLER_16_65
*950 FILLER_16_77
*951 FILLER_16_83
*952 FILLER_16_85
*953 FILLER_16_97
*954 FILLER_17_105
*955 FILLER_17_111
*956 FILLER_17_113
*957 FILLER_17_125
*958 FILLER_17_137
*959 FILLER_17_149
*960 FILLER_17_15
*961 FILLER_17_161
*962 FILLER_17_167
*963 FILLER_17_169
*964 FILLER_17_181
*965 FILLER_17_193
*966 FILLER_17_205
*967 FILLER_17_217
*968 FILLER_17_223
*969 FILLER_17_225
*970 FILLER_17_237
*971 FILLER_17_249
*972 FILLER_17_261
*973 FILLER_17_27
*974 FILLER_17_273
*975 FILLER_17_279
*976 FILLER_17_281
*977 FILLER_17_293
*978 FILLER_17_3
*979 FILLER_17_305
*980 FILLER_17_317
*981 FILLER_17_329
*982 FILLER_17_335
*983 FILLER_17_337
*984 FILLER_17_349
*985 FILLER_17_361
*986 FILLER_17_373
*987 FILLER_17_377
*988 FILLER_17_384
*989 FILLER_17_39
*990 FILLER_17_51
*991 FILLER_17_55
*992 FILLER_17_57
*993 FILLER_17_69
*994 FILLER_17_81
*995 FILLER_17_93
*996 FILLER_18_109
*997 FILLER_18_121
*998 FILLER_18_133
*999 FILLER_18_139
*1000 FILLER_18_141
*1001 FILLER_18_15
*1002 FILLER_18_153
*1003 FILLER_18_165
*1004 FILLER_18_177
*1005 FILLER_18_189
*1006 FILLER_18_195
*1007 FILLER_18_197
*1008 FILLER_18_209
*1009 FILLER_18_221
*1010 FILLER_18_233
*1011 FILLER_18_245
*1012 FILLER_18_251
*1013 FILLER_18_253
*1014 FILLER_18_265
*1015 FILLER_18_27
*1016 FILLER_18_277
*1017 FILLER_18_289
*1018 FILLER_18_29
*1019 FILLER_18_3
*1020 FILLER_18_301
*1021 FILLER_18_307
*1022 FILLER_18_309
*1023 FILLER_18_321
*1024 FILLER_18_333
*1025 FILLER_18_345
*1026 FILLER_18_357
*1027 FILLER_18_363
*1028 FILLER_18_365
*1029 FILLER_18_377
*1030 FILLER_18_385
*1031 FILLER_18_41
*1032 FILLER_18_53
*1033 FILLER_18_65
*1034 FILLER_18_77
*1035 FILLER_18_83
*1036 FILLER_18_85
*1037 FILLER_18_97
*1038 FILLER_19_105
*1039 FILLER_19_111
*1040 FILLER_19_113
*1041 FILLER_19_125
*1042 FILLER_19_137
*1043 FILLER_19_149
*1044 FILLER_19_161
*1045 FILLER_19_167
*1046 FILLER_19_169
*1047 FILLER_19_181
*1048 FILLER_19_193
*1049 FILLER_19_205
*1050 FILLER_19_21
*1051 FILLER_19_217
*1052 FILLER_19_223
*1053 FILLER_19_225
*1054 FILLER_19_237
*1055 FILLER_19_249
*1056 FILLER_19_261
*1057 FILLER_19_273
*1058 FILLER_19_279
*1059 FILLER_19_281
*1060 FILLER_19_293
*1061 FILLER_19_3
*1062 FILLER_19_305
*1063 FILLER_19_317
*1064 FILLER_19_329
*1065 FILLER_19_33
*1066 FILLER_19_335
*1067 FILLER_19_337
*1068 FILLER_19_349
*1069 FILLER_19_361
*1070 FILLER_19_373
*1071 FILLER_19_385
*1072 FILLER_19_45
*1073 FILLER_19_53
*1074 FILLER_19_57
*1075 FILLER_19_69
*1076 FILLER_19_81
*1077 FILLER_19_9
*1078 FILLER_19_93
*1079 FILLER_1_101
*1080 FILLER_1_109
*1081 FILLER_1_113
*1082 FILLER_1_118
*1083 FILLER_1_124
*1084 FILLER_1_136
*1085 FILLER_1_148
*1086 FILLER_1_15
*1087 FILLER_1_156
*1088 FILLER_1_161
*1089 FILLER_1_167
*1090 FILLER_1_169
*1091 FILLER_1_181
*1092 FILLER_1_193
*1093 FILLER_1_197
*1094 FILLER_1_201
*1095 FILLER_1_207
*1096 FILLER_1_219
*1097 FILLER_1_223
*1098 FILLER_1_225
*1099 FILLER_1_237
*1100 FILLER_1_241
*1101 FILLER_1_247
*1102 FILLER_1_259
*1103 FILLER_1_27
*1104 FILLER_1_271
*1105 FILLER_1_279
*1106 FILLER_1_281
*1107 FILLER_1_293
*1108 FILLER_1_3
*1109 FILLER_1_305
*1110 FILLER_1_317
*1111 FILLER_1_329
*1112 FILLER_1_335
*1113 FILLER_1_337
*1114 FILLER_1_34
*1115 FILLER_1_341
*1116 FILLER_1_350
*1117 FILLER_1_362
*1118 FILLER_1_370
*1119 FILLER_1_384
*1120 FILLER_1_46
*1121 FILLER_1_54
*1122 FILLER_1_57
*1123 FILLER_1_69
*1124 FILLER_1_81
*1125 FILLER_1_9
*1126 FILLER_1_93
*1127 FILLER_20_10
*1128 FILLER_20_109
*1129 FILLER_20_121
*1130 FILLER_20_133
*1131 FILLER_20_139
*1132 FILLER_20_141
*1133 FILLER_20_153
*1134 FILLER_20_165
*1135 FILLER_20_177
*1136 FILLER_20_189
*1137 FILLER_20_195
*1138 FILLER_20_197
*1139 FILLER_20_209
*1140 FILLER_20_22
*1141 FILLER_20_221
*1142 FILLER_20_233
*1143 FILLER_20_245
*1144 FILLER_20_251
*1145 FILLER_20_253
*1146 FILLER_20_265
*1147 FILLER_20_277
*1148 FILLER_20_289
*1149 FILLER_20_29
*1150 FILLER_20_3
*1151 FILLER_20_301
*1152 FILLER_20_307
*1153 FILLER_20_309
*1154 FILLER_20_321
*1155 FILLER_20_333
*1156 FILLER_20_345
*1157 FILLER_20_357
*1158 FILLER_20_363
*1159 FILLER_20_365
*1160 FILLER_20_377
*1161 FILLER_20_385
*1162 FILLER_20_41
*1163 FILLER_20_53
*1164 FILLER_20_65
*1165 FILLER_20_77
*1166 FILLER_20_83
*1167 FILLER_20_85
*1168 FILLER_20_97
*1169 FILLER_21_105
*1170 FILLER_21_111
*1171 FILLER_21_113
*1172 FILLER_21_125
*1173 FILLER_21_134
*1174 FILLER_21_140
*1175 FILLER_21_152
*1176 FILLER_21_164
*1177 FILLER_21_169
*1178 FILLER_21_181
*1179 FILLER_21_19
*1180 FILLER_21_193
*1181 FILLER_21_205
*1182 FILLER_21_217
*1183 FILLER_21_223
*1184 FILLER_21_225
*1185 FILLER_21_237
*1186 FILLER_21_249
*1187 FILLER_21_261
*1188 FILLER_21_273
*1189 FILLER_21_279
*1190 FILLER_21_281
*1191 FILLER_21_293
*1192 FILLER_21_3
*1193 FILLER_21_305
*1194 FILLER_21_31
*1195 FILLER_21_317
*1196 FILLER_21_329
*1197 FILLER_21_335
*1198 FILLER_21_337
*1199 FILLER_21_349
*1200 FILLER_21_361
*1201 FILLER_21_373
*1202 FILLER_21_379
*1203 FILLER_21_384
*1204 FILLER_21_43
*1205 FILLER_21_55
*1206 FILLER_21_57
*1207 FILLER_21_69
*1208 FILLER_21_7
*1209 FILLER_21_81
*1210 FILLER_21_93
*1211 FILLER_22_109
*1212 FILLER_22_121
*1213 FILLER_22_133
*1214 FILLER_22_139
*1215 FILLER_22_141
*1216 FILLER_22_153
*1217 FILLER_22_165
*1218 FILLER_22_177
*1219 FILLER_22_189
*1220 FILLER_22_195
*1221 FILLER_22_197
*1222 FILLER_22_209
*1223 FILLER_22_21
*1224 FILLER_22_221
*1225 FILLER_22_233
*1226 FILLER_22_245
*1227 FILLER_22_251
*1228 FILLER_22_253
*1229 FILLER_22_257
*1230 FILLER_22_261
*1231 FILLER_22_267
*1232 FILLER_22_27
*1233 FILLER_22_279
*1234 FILLER_22_29
*1235 FILLER_22_291
*1236 FILLER_22_3
*1237 FILLER_22_303
*1238 FILLER_22_307
*1239 FILLER_22_309
*1240 FILLER_22_321
*1241 FILLER_22_330
*1242 FILLER_22_342
*1243 FILLER_22_354
*1244 FILLER_22_362
*1245 FILLER_22_365
*1246 FILLER_22_377
*1247 FILLER_22_385
*1248 FILLER_22_41
*1249 FILLER_22_53
*1250 FILLER_22_65
*1251 FILLER_22_77
*1252 FILLER_22_83
*1253 FILLER_22_85
*1254 FILLER_22_9
*1255 FILLER_22_97
*1256 FILLER_23_105
*1257 FILLER_23_111
*1258 FILLER_23_113
*1259 FILLER_23_125
*1260 FILLER_23_137
*1261 FILLER_23_149
*1262 FILLER_23_15
*1263 FILLER_23_161
*1264 FILLER_23_167
*1265 FILLER_23_169
*1266 FILLER_23_181
*1267 FILLER_23_193
*1268 FILLER_23_205
*1269 FILLER_23_217
*1270 FILLER_23_223
*1271 FILLER_23_225
*1272 FILLER_23_237
*1273 FILLER_23_249
*1274 FILLER_23_261
*1275 FILLER_23_27
*1276 FILLER_23_273
*1277 FILLER_23_279
*1278 FILLER_23_281
*1279 FILLER_23_293
*1280 FILLER_23_3
*1281 FILLER_23_305
*1282 FILLER_23_317
*1283 FILLER_23_329
*1284 FILLER_23_335
*1285 FILLER_23_337
*1286 FILLER_23_349
*1287 FILLER_23_361
*1288 FILLER_23_373
*1289 FILLER_23_385
*1290 FILLER_23_39
*1291 FILLER_23_51
*1292 FILLER_23_55
*1293 FILLER_23_57
*1294 FILLER_23_69
*1295 FILLER_23_81
*1296 FILLER_23_93
*1297 FILLER_24_109
*1298 FILLER_24_121
*1299 FILLER_24_133
*1300 FILLER_24_139
*1301 FILLER_24_141
*1302 FILLER_24_15
*1303 FILLER_24_153
*1304 FILLER_24_165
*1305 FILLER_24_177
*1306 FILLER_24_189
*1307 FILLER_24_195
*1308 FILLER_24_197
*1309 FILLER_24_209
*1310 FILLER_24_221
*1311 FILLER_24_233
*1312 FILLER_24_245
*1313 FILLER_24_251
*1314 FILLER_24_253
*1315 FILLER_24_265
*1316 FILLER_24_27
*1317 FILLER_24_277
*1318 FILLER_24_289
*1319 FILLER_24_29
*1320 FILLER_24_3
*1321 FILLER_24_301
*1322 FILLER_24_307
*1323 FILLER_24_309
*1324 FILLER_24_321
*1325 FILLER_24_333
*1326 FILLER_24_345
*1327 FILLER_24_357
*1328 FILLER_24_363
*1329 FILLER_24_365
*1330 FILLER_24_377
*1331 FILLER_24_381
*1332 FILLER_24_384
*1333 FILLER_24_41
*1334 FILLER_24_53
*1335 FILLER_24_65
*1336 FILLER_24_77
*1337 FILLER_24_83
*1338 FILLER_24_85
*1339 FILLER_24_97
*1340 FILLER_25_105
*1341 FILLER_25_111
*1342 FILLER_25_113
*1343 FILLER_25_125
*1344 FILLER_25_133
*1345 FILLER_25_139
*1346 FILLER_25_145
*1347 FILLER_25_157
*1348 FILLER_25_165
*1349 FILLER_25_169
*1350 FILLER_25_181
*1351 FILLER_25_193
*1352 FILLER_25_205
*1353 FILLER_25_21
*1354 FILLER_25_217
*1355 FILLER_25_223
*1356 FILLER_25_225
*1357 FILLER_25_237
*1358 FILLER_25_249
*1359 FILLER_25_261
*1360 FILLER_25_267
*1361 FILLER_25_273
*1362 FILLER_25_279
*1363 FILLER_25_281
*1364 FILLER_25_293
*1365 FILLER_25_3
*1366 FILLER_25_305
*1367 FILLER_25_317
*1368 FILLER_25_329
*1369 FILLER_25_33
*1370 FILLER_25_335
*1371 FILLER_25_337
*1372 FILLER_25_349
*1373 FILLER_25_361
*1374 FILLER_25_373
*1375 FILLER_25_384
*1376 FILLER_25_45
*1377 FILLER_25_53
*1378 FILLER_25_57
*1379 FILLER_25_69
*1380 FILLER_25_81
*1381 FILLER_25_9
*1382 FILLER_25_93
*1383 FILLER_26_109
*1384 FILLER_26_121
*1385 FILLER_26_133
*1386 FILLER_26_139
*1387 FILLER_26_141
*1388 FILLER_26_15
*1389 FILLER_26_153
*1390 FILLER_26_165
*1391 FILLER_26_177
*1392 FILLER_26_189
*1393 FILLER_26_195
*1394 FILLER_26_197
*1395 FILLER_26_209
*1396 FILLER_26_221
*1397 FILLER_26_233
*1398 FILLER_26_245
*1399 FILLER_26_251
*1400 FILLER_26_253
*1401 FILLER_26_265
*1402 FILLER_26_27
*1403 FILLER_26_277
*1404 FILLER_26_289
*1405 FILLER_26_29
*1406 FILLER_26_3
*1407 FILLER_26_301
*1408 FILLER_26_307
*1409 FILLER_26_309
*1410 FILLER_26_321
*1411 FILLER_26_333
*1412 FILLER_26_345
*1413 FILLER_26_357
*1414 FILLER_26_363
*1415 FILLER_26_365
*1416 FILLER_26_377
*1417 FILLER_26_385
*1418 FILLER_26_41
*1419 FILLER_26_53
*1420 FILLER_26_65
*1421 FILLER_26_77
*1422 FILLER_26_83
*1423 FILLER_26_85
*1424 FILLER_26_97
*1425 FILLER_27_105
*1426 FILLER_27_111
*1427 FILLER_27_113
*1428 FILLER_27_125
*1429 FILLER_27_137
*1430 FILLER_27_149
*1431 FILLER_27_15
*1432 FILLER_27_161
*1433 FILLER_27_167
*1434 FILLER_27_169
*1435 FILLER_27_181
*1436 FILLER_27_193
*1437 FILLER_27_205
*1438 FILLER_27_217
*1439 FILLER_27_223
*1440 FILLER_27_225
*1441 FILLER_27_237
*1442 FILLER_27_249
*1443 FILLER_27_261
*1444 FILLER_27_27
*1445 FILLER_27_273
*1446 FILLER_27_279
*1447 FILLER_27_281
*1448 FILLER_27_286
*1449 FILLER_27_292
*1450 FILLER_27_3
*1451 FILLER_27_304
*1452 FILLER_27_316
*1453 FILLER_27_328
*1454 FILLER_27_337
*1455 FILLER_27_349
*1456 FILLER_27_361
*1457 FILLER_27_373
*1458 FILLER_27_379
*1459 FILLER_27_384
*1460 FILLER_27_39
*1461 FILLER_27_51
*1462 FILLER_27_55
*1463 FILLER_27_57
*1464 FILLER_27_69
*1465 FILLER_27_81
*1466 FILLER_27_93
*1467 FILLER_28_109
*1468 FILLER_28_121
*1469 FILLER_28_133