*SPEF "ieee 1481-1999"
*DESIGN "cbx_1__4_"
*DATE "11:11:11 Fri 11 11, 1111"
*VENDOR "OpenRCX"
*PROGRAM "Parallel Extraction"
*VERSION "1.0"
*DESIGN_FLOW "NAME_SCOPE LOCAL" "PIN_CAP NONE"
*DIVIDER /
*DELIMITER :
*BUS_DELIMITER []
*T_UNIT 1 NS
*C_UNIT 1 PF
*R_UNIT 1 OHM
*L_UNIT 1 HENRY

*NAME_MAP
*1 bottom_grid_top_width_0_height_0_subtile_0__pin_I_0_
*2 bottom_grid_top_width_0_height_0_subtile_0__pin_I_4_
*3 bottom_grid_top_width_0_height_0_subtile_0__pin_I_8_
*4 bottom_grid_top_width_0_height_0_subtile_0__pin_clk_0_
*5 ccff_head
*6 ccff_tail
*7 chanx_left_in[0]
*8 chanx_left_in[10]
*9 chanx_left_in[11]
*10 chanx_left_in[12]
*11 chanx_left_in[13]
*12 chanx_left_in[14]
*13 chanx_left_in[15]
*14 chanx_left_in[16]
*15 chanx_left_in[17]
*16 chanx_left_in[18]
*17 chanx_left_in[1]
*18 chanx_left_in[2]
*19 chanx_left_in[3]
*20 chanx_left_in[4]
*21 chanx_left_in[5]
*22 chanx_left_in[6]
*23 chanx_left_in[7]
*24 chanx_left_in[8]
*25 chanx_left_in[9]
*26 chanx_left_out[0]
*27 chanx_left_out[10]
*28 chanx_left_out[11]
*29 chanx_left_out[12]
*30 chanx_left_out[13]
*31 chanx_left_out[14]
*32 chanx_left_out[15]
*33 chanx_left_out[16]
*34 chanx_left_out[17]
*35 chanx_left_out[18]
*36 chanx_left_out[1]
*37 chanx_left_out[2]
*38 chanx_left_out[3]
*39 chanx_left_out[4]
*40 chanx_left_out[5]
*41 chanx_left_out[6]
*42 chanx_left_out[7]
*43 chanx_left_out[8]
*44 chanx_left_out[9]
*45 chanx_right_in[0]
*46 chanx_right_in[10]
*47 chanx_right_in[11]
*48 chanx_right_in[12]
*49 chanx_right_in[13]
*50 chanx_right_in[14]
*51 chanx_right_in[15]
*52 chanx_right_in[16]
*53 chanx_right_in[17]
*54 chanx_right_in[18]
*55 chanx_right_in[1]
*56 chanx_right_in[2]
*57 chanx_right_in[3]
*58 chanx_right_in[4]
*59 chanx_right_in[5]
*60 chanx_right_in[6]
*61 chanx_right_in[7]
*62 chanx_right_in[8]
*63 chanx_right_in[9]
*64 chanx_right_out[0]
*65 chanx_right_out[10]
*66 chanx_right_out[11]
*67 chanx_right_out[12]
*68 chanx_right_out[13]
*69 chanx_right_out[14]
*70 chanx_right_out[15]
*71 chanx_right_out[16]
*72 chanx_right_out[17]
*73 chanx_right_out[18]
*74 chanx_right_out[1]
*75 chanx_right_out[2]
*76 chanx_right_out[3]
*77 chanx_right_out[4]
*78 chanx_right_out[5]
*79 chanx_right_out[6]
*80 chanx_right_out[7]
*81 chanx_right_out[8]
*82 chanx_right_out[9]
*83 pReset
*84 prog_clk
*85 top_grid_bottom_width_0_height_0_subtile_0__pin_outpad_0_
*86 top_grid_bottom_width_0_height_0_subtile_1__pin_outpad_0_
*87 top_grid_bottom_width_0_height_0_subtile_2__pin_outpad_0_
*88 top_grid_bottom_width_0_height_0_subtile_3__pin_outpad_0_
*89 top_grid_bottom_width_0_height_0_subtile_4__pin_outpad_0_
*90 top_grid_bottom_width_0_height_0_subtile_5__pin_outpad_0_
*91 top_grid_bottom_width_0_height_0_subtile_6__pin_outpad_0_
*92 top_grid_bottom_width_0_height_0_subtile_7__pin_outpad_0_
*95 _000_
*96 _001_
*97 _002_
*98 _003_
*99 _004_
*100 _005_
*101 _006_
*102 _007_
*103 _008_
*104 _009_
*105 _010_
*106 _011_
*107 _012_
*108 _013_
*109 _014_
*110 _015_
*111 _016_
*112 _017_
*113 _018_
*114 _019_
*115 _020_
*116 _021_
*117 _022_
*118 _023_
*119 _024_
*120 _025_
*121 _026_
*122 _027_
*123 _028_
*124 _029_
*125 _030_
*126 _031_
*127 _032_
*128 _033_
*129 _034_
*130 _035_
*131 _036_
*132 _037_
*133 _038_
*134 _039_
*135 _040_
*136 _041_
*137 _042_
*138 _043_
*139 _044_
*140 _045_
*141 _046_
*142 _047_
*143 _048_
*144 _049_
*145 _050_
*146 _051_
*147 _052_
*148 _053_
*149 _054_
*150 _055_
*151 _056_
*152 _057_
*153 _058_
*154 _059_
*155 _060_
*156 _061_
*157 _062_
*158 _063_
*159 _064_
*160 _065_
*161 _066_
*162 _067_
*163 _068_
*164 _069_
*165 _070_
*166 _071_
*167 _072_
*168 _073_
*169 _074_
*170 _075_
*171 _076_
*172 _077_
*173 _078_
*174 _079_
*175 _080_
*176 _081_
*177 _082_
*178 _083_
*179 _084_
*180 _085_
*181 _086_
*182 _087_
*183 _088_
*184 _089_
*185 _090_
*186 _091_
*187 _092_
*188 _093_
*189 _094_
*190 _095_
*191 _096_
*192 _097_
*193 _098_
*194 _099_
*195 _100_
*196 _101_
*197 _102_
*198 _103_
*199 _104_
*200 _105_
*201 _106_
*202 _107_
*203 _108_
*204 _109_
*205 _110_
*206 _111_
*207 _112_
*208 _113_
*209 _114_
*210 _115_
*211 _116_
*212 _117_
*213 _118_
*214 _119_
*215 _120_
*216 _121_
*217 _122_
*218 _123_
*219 _124_
*220 _125_
*221 _126_
*222 _127_
*223 _128_
*224 _129_
*225 _130_
*226 _131_
*227 _132_
*228 _133_
*229 _134_
*230 _135_
*231 _136_
*232 _137_
*233 _138_
*234 _139_
*235 _140_
*236 _141_
*237 _142_
*238 _143_
*239 _144_
*240 _145_
*241 _146_
*242 _147_
*243 _148_
*244 _149_
*245 _150_
*246 _151_
*247 _152_
*248 _153_
*249 _154_
*250 _155_
*251 _156_
*252 _157_
*253 _158_
*254 _159_
*255 _160_
*256 _161_
*257 _162_
*258 _163_
*259 _164_
*260 _165_
*261 _166_
*262 _167_
*263 _168_
*264 _169_
*265 _170_
*266 _171_
*267 _172_
*268 _173_
*269 _174_
*270 _175_
*271 _176_
*272 _177_
*273 _178_
*274 _179_
*275 _180_
*276 _181_
*277 _182_
*278 _183_
*279 _184_
*280 _185_
*281 _186_
*282 _187_
*283 _188_
*284 _189_
*285 _190_
*286 _191_
*287 _192_
*288 _193_
*289 _194_
*290 _195_
*291 _196_
*292 _197_
*293 _198_
*294 _199_
*295 _200_
*296 _201_
*297 _202_
*298 _203_
*299 _204_
*300 _205_
*301 _206_
*302 _207_
*303 _208_
*304 _209_
*305 _210_
*306 _211_
*307 _212_
*308 _213_
*309 _214_
*310 _215_
*311 _216_
*312 _217_
*313 _218_
*314 _219_
*315 _220_
*316 _221_
*317 _222_
*318 _223_
*319 clknet_0_prog_clk
*320 clknet_3_0__leaf_prog_clk
*321 clknet_3_1__leaf_prog_clk
*322 clknet_3_2__leaf_prog_clk
*323 clknet_3_3__leaf_prog_clk
*324 clknet_3_4__leaf_prog_clk
*325 clknet_3_5__leaf_prog_clk
*326 clknet_3_6__leaf_prog_clk
*327 clknet_3_7__leaf_prog_clk
*328 mem_bottom_ipin_0\.DFFR_0_\.Q
*329 mem_bottom_ipin_0\.DFFR_1_\.Q
*330 mem_bottom_ipin_0\.DFFR_2_\.Q
*331 mem_bottom_ipin_0\.DFFR_3_\.Q
*332 mem_bottom_ipin_0\.DFFR_4_\.Q
*333 mem_bottom_ipin_0\.DFFR_5_\.Q
*334 mem_bottom_ipin_1\.DFFR_0_\.Q
*335 mem_bottom_ipin_1\.DFFR_1_\.Q
*336 mem_bottom_ipin_1\.DFFR_2_\.Q
*337 mem_bottom_ipin_1\.DFFR_3_\.Q
*338 mem_bottom_ipin_1\.DFFR_4_\.Q
*339 mem_bottom_ipin_1\.DFFR_5_\.Q
*340 mem_bottom_ipin_2\.DFFR_0_\.Q
*341 mem_bottom_ipin_2\.DFFR_1_\.Q
*342 mem_bottom_ipin_2\.DFFR_2_\.Q
*343 mem_bottom_ipin_2\.DFFR_3_\.Q
*344 mem_bottom_ipin_2\.DFFR_4_\.Q
*345 mem_bottom_ipin_2\.DFFR_5_\.Q
*346 mem_bottom_ipin_3\.DFFR_0_\.Q
*347 mem_bottom_ipin_3\.DFFR_1_\.Q
*348 mem_bottom_ipin_3\.DFFR_2_\.Q
*349 mem_bottom_ipin_3\.DFFR_3_\.Q
*350 mem_bottom_ipin_3\.DFFR_4_\.Q
*351 mem_bottom_ipin_3\.DFFR_5_\.Q
*352 mem_bottom_ipin_4\.DFFR_0_\.Q
*353 mem_bottom_ipin_4\.DFFR_1_\.Q
*354 mem_bottom_ipin_4\.DFFR_2_\.Q
*355 mem_bottom_ipin_4\.DFFR_3_\.Q
*356 mem_bottom_ipin_4\.DFFR_4_\.Q
*357 mem_bottom_ipin_4\.DFFR_5_\.Q
*358 mem_bottom_ipin_5\.DFFR_0_\.Q
*359 mem_bottom_ipin_5\.DFFR_1_\.Q
*360 mem_bottom_ipin_5\.DFFR_2_\.Q
*361 mem_bottom_ipin_5\.DFFR_3_\.Q
*362 mem_bottom_ipin_5\.DFFR_4_\.Q
*363 mem_bottom_ipin_5\.DFFR_5_\.Q
*364 mem_bottom_ipin_6\.DFFR_0_\.Q
*365 mem_bottom_ipin_6\.DFFR_1_\.Q
*366 mem_bottom_ipin_6\.DFFR_2_\.Q
*367 mem_bottom_ipin_6\.DFFR_3_\.Q
*368 mem_bottom_ipin_6\.DFFR_4_\.Q
*369 mem_bottom_ipin_6\.DFFR_5_\.Q
*370 mem_bottom_ipin_7\.DFFR_0_\.Q
*371 mem_bottom_ipin_7\.DFFR_1_\.Q
*372 mem_bottom_ipin_7\.DFFR_2_\.Q
*373 mem_bottom_ipin_7\.DFFR_3_\.Q
*374 mem_bottom_ipin_7\.DFFR_4_\.Q
*375 mem_bottom_ipin_7\.DFFR_5_\.Q
*376 mem_top_ipin_0\.DFFR_0_\.Q
*377 mem_top_ipin_0\.DFFR_1_\.Q
*378 mem_top_ipin_0\.DFFR_2_\.Q
*379 mem_top_ipin_0\.DFFR_3_\.Q
*380 mem_top_ipin_0\.DFFR_4_\.Q
*381 mem_top_ipin_0\.DFFR_5_\.Q
*382 mem_top_ipin_1\.DFFR_0_\.Q
*383 mem_top_ipin_1\.DFFR_1_\.Q
*384 mem_top_ipin_1\.DFFR_2_\.Q
*385 mem_top_ipin_1\.DFFR_3_\.Q
*386 mem_top_ipin_1\.DFFR_4_\.Q
*387 mem_top_ipin_1\.DFFR_5_\.Q
*388 mem_top_ipin_2\.DFFR_0_\.Q
*389 mem_top_ipin_2\.DFFR_1_\.Q
*390 mem_top_ipin_2\.DFFR_2_\.Q
*391 mem_top_ipin_2\.DFFR_3_\.Q
*392 mem_top_ipin_2\.DFFR_4_\.Q
*393 mem_top_ipin_2\.DFFR_5_\.Q
*394 mem_top_ipin_3\.DFFR_0_\.Q
*395 mem_top_ipin_3\.DFFR_1_\.Q
*396 mem_top_ipin_3\.DFFR_2_\.Q
*397 mem_top_ipin_3\.DFFR_3_\.Q
*398 mem_top_ipin_3\.DFFR_4_\.Q
*399 mux_bottom_ipin_0\.INVTX1_0_\.out
*400 mux_bottom_ipin_0\.INVTX1_1_\.out
*401 mux_bottom_ipin_0\.INVTX1_2_\.out
*402 mux_bottom_ipin_0\.INVTX1_3_\.out
*403 mux_bottom_ipin_0\.INVTX1_4_\.out
*404 mux_bottom_ipin_0\.INVTX1_5_\.out
*405 mux_bottom_ipin_0\.INVTX1_6_\.out
*406 mux_bottom_ipin_0\.INVTX1_7_\.out
*407 mux_bottom_ipin_0\.mux_2level_tapbuf_basis_input3_mem3_0_out
*408 mux_bottom_ipin_0\.mux_2level_tapbuf_basis_input3_mem3_1_out
*409 mux_bottom_ipin_0\.mux_2level_tapbuf_basis_input3_mem3_2_out
*410 mux_bottom_ipin_0\.mux_2level_tapbuf_basis_input3_mem3_3_out
*411 mux_bottom_ipin_1\.INVTX1_2_\.out
*412 mux_bottom_ipin_1\.INVTX1_3_\.out
*413 mux_bottom_ipin_1\.INVTX1_4_\.out
*414 mux_bottom_ipin_1\.INVTX1_5_\.out
*415 mux_bottom_ipin_1\.INVTX1_6_\.out
*416 mux_bottom_ipin_1\.INVTX1_7_\.out
*417 mux_bottom_ipin_1\.mux_2level_tapbuf_basis_input3_mem3_0_out
*418 mux_bottom_ipin_1\.mux_2level_tapbuf_basis_input3_mem3_1_out
*419 mux_bottom_ipin_1\.mux_2level_tapbuf_basis_input3_mem3_2_out
*420 mux_bottom_ipin_1\.mux_2level_tapbuf_basis_input3_mem3_3_out
*421 mux_bottom_ipin_2\.INVTX1_2_\.out
*422 mux_bottom_ipin_2\.INVTX1_3_\.out
*423 mux_bottom_ipin_2\.INVTX1_4_\.out
*424 mux_bottom_ipin_2\.INVTX1_5_\.out
*425 mux_bottom_ipin_2\.INVTX1_6_\.out
*426 mux_bottom_ipin_2\.INVTX1_7_\.out
*427 mux_bottom_ipin_2\.mux_2level_tapbuf_basis_input3_mem3_0_out
*428 mux_bottom_ipin_2\.mux_2level_tapbuf_basis_input3_mem3_1_out
*429 mux_bottom_ipin_2\.mux_2level_tapbuf_basis_input3_mem3_2_out
*430 mux_bottom_ipin_2\.mux_2level_tapbuf_basis_input3_mem3_3_out
*431 mux_bottom_ipin_3\.INVTX1_2_\.out
*432 mux_bottom_ipin_3\.INVTX1_3_\.out
*433 mux_bottom_ipin_3\.INVTX1_4_\.out
*434 mux_bottom_ipin_3\.INVTX1_5_\.out
*435 mux_bottom_ipin_3\.INVTX1_6_\.out
*436 mux_bottom_ipin_3\.INVTX1_7_\.out
*437 mux_bottom_ipin_3\.mux_2level_tapbuf_basis_input3_mem3_0_out
*438 mux_bottom_ipin_3\.mux_2level_tapbuf_basis_input3_mem3_1_out
*439 mux_bottom_ipin_3\.mux_2level_tapbuf_basis_input3_mem3_2_out
*440 mux_bottom_ipin_3\.mux_2level_tapbuf_basis_input3_mem3_3_out
*441 mux_bottom_ipin_4\.INVTX1_2_\.out
*442 mux_bottom_ipin_4\.INVTX1_3_\.out
*443 mux_bottom_ipin_4\.INVTX1_4_\.out
*444 mux_bottom_ipin_4\.INVTX1_5_\.out
*445 mux_bottom_ipin_4\.INVTX1_6_\.out
*446 mux_bottom_ipin_4\.INVTX1_7_\.out
*447 mux_bottom_ipin_4\.mux_2level_tapbuf_basis_input3_mem3_0_out
*448 mux_bottom_ipin_4\.mux_2level_tapbuf_basis_input3_mem3_1_out
*449 mux_bottom_ipin_4\.mux_2level_tapbuf_basis_input3_mem3_2_out
*450 mux_bottom_ipin_4\.mux_2level_tapbuf_basis_input3_mem3_3_out
*451 mux_bottom_ipin_5\.INVTX1_2_\.out
*452 mux_bottom_ipin_5\.INVTX1_3_\.out
*453 mux_bottom_ipin_5\.INVTX1_4_\.out
*454 mux_bottom_ipin_5\.INVTX1_5_\.out
*455 mux_bottom_ipin_5\.INVTX1_6_\.out
*456 mux_bottom_ipin_5\.INVTX1_7_\.out
*457 mux_bottom_ipin_5\.mux_2level_tapbuf_basis_input3_mem3_0_out
*458 mux_bottom_ipin_5\.mux_2level_tapbuf_basis_input3_mem3_1_out
*459 mux_bottom_ipin_5\.mux_2level_tapbuf_basis_input3_mem3_2_out
*460 mux_bottom_ipin_5\.mux_2level_tapbuf_basis_input3_mem3_3_out
*461 mux_bottom_ipin_6\.mux_2level_tapbuf_basis_input3_mem3_0_out
*462 mux_bottom_ipin_6\.mux_2level_tapbuf_basis_input3_mem3_1_out
*463 mux_bottom_ipin_6\.mux_2level_tapbuf_basis_input3_mem3_2_out
*464 mux_bottom_ipin_6\.mux_2level_tapbuf_basis_input3_mem3_3_out
*465 mux_bottom_ipin_7\.mux_2level_tapbuf_basis_input3_mem3_0_out
*466 mux_bottom_ipin_7\.mux_2level_tapbuf_basis_input3_mem3_1_out
*467 mux_bottom_ipin_7\.mux_2level_tapbuf_basis_input3_mem3_2_out
*468 mux_bottom_ipin_7\.mux_2level_tapbuf_basis_input3_mem3_3_out
*469 mux_top_ipin_0\.mux_2level_tapbuf_basis_input3_mem3_0_out
*470 mux_top_ipin_0\.mux_2level_tapbuf_basis_input3_mem3_1_out
*471 mux_top_ipin_0\.mux_2level_tapbuf_basis_input3_mem3_2_out
*472 mux_top_ipin_0\.mux_2level_tapbuf_basis_input3_mem3_3_out
*473 mux_top_ipin_1\.mux_2level_tapbuf_basis_input3_mem3_0_out
*474 mux_top_ipin_1\.mux_2level_tapbuf_basis_input3_mem3_1_out
*475 mux_top_ipin_1\.mux_2level_tapbuf_basis_input3_mem3_2_out
*476 mux_top_ipin_1\.mux_2level_tapbuf_basis_input3_mem3_3_out
*477 mux_top_ipin_2\.mux_2level_tapbuf_basis_input3_mem3_0_out
*478 mux_top_ipin_2\.mux_2level_tapbuf_basis_input3_mem3_1_out
*479 mux_top_ipin_2\.mux_2level_tapbuf_basis_input3_mem3_2_out
*480 mux_top_ipin_2\.mux_2level_tapbuf_basis_input3_mem3_3_out
*481 mux_top_ipin_3\.mux_2level_tapbuf_basis_input3_mem3_0_out
*482 mux_top_ipin_3\.mux_2level_tapbuf_basis_input3_mem3_1_out
*483 mux_top_ipin_3\.mux_2level_tapbuf_basis_input3_mem3_2_out
*484 mux_top_ipin_3\.mux_2level_tapbuf_basis_input3_mem3_3_out
*485 net1
*486 net10
*487 net100
*488 net101
*489 net102
*490 net103
*491 net11
*492 net12
*493 net13
*494 net14
*495 net15
*496 net16
*497 net17
*498 net18
*499 net19
*500 net2
*501 net20
*502 net21
*503 net22
*504 net23
*505 net24
*506 net25
*507 net26
*508 net27
*509 net28
*510 net29
*511 net3
*512 net30
*513 net31
*514 net32
*515 net33
*516 net34
*517 net35
*518 net36
*519 net37
*520 net38
*521 net39
*522 net4
*523 net40
*524 net41
*525 net42
*526 net43
*527 net44
*528 net45
*529 net46
*530 net47
*531 net48
*532 net49
*533 net5
*534 net50
*535 net51
*536 net52
*537 net53
*538 net54
*539 net55
*540 net56
*541 net57
*542 net58
*543 net59
*544 net6
*545 net60
*546 net61
*547 net62
*548 net63
*549 net64
*550 net65
*551 net66
*552 net67
*553 net68
*554 net69
*555 net7
*556 net70
*557 net71
*558 net72
*559 net73
*560 net74
*561 net75
*562 net76
*563 net77
*564 net78
*565 net79
*566 net8
*567 net80
*568 net81
*569 net82
*570 net83
*571 net84
*572 net85
*573 net86
*574 net87
*575 net88
*576 net89
*577 net9
*578 net90
*579 net91
*580 net92
*581 net93
*582 net94
*583 net95
*584 net96
*585 net97
*586 net98
*587 net99
*588 ANTENNA__238__A
*589 ANTENNA__239__A
*590 ANTENNA__240__A
*591 ANTENNA__241__A
*592 ANTENNA__242__A
*593 ANTENNA__243__A
*594 ANTENNA__244__A
*595 ANTENNA__245__A
*596 ANTENNA__246__A
*597 ANTENNA__247__A
*598 ANTENNA__262__A
*599 ANTENNA__264__A
*600 ANTENNA__265__A
*601 ANTENNA__266__A
*602 ANTENNA__268__A
*603 ANTENNA__270__A
*604 ANTENNA__272__A
*605 ANTENNA__274__A
*606 ANTENNA__275__A
*607 ANTENNA__276__A
*608 ANTENNA__278__A
*609 ANTENNA__279__A
*610 ANTENNA__280__A
*611 ANTENNA__282__A
*612 ANTENNA__283__A
*613 ANTENNA__284__A
*614 ANTENNA__286__A
*615 ANTENNA__287__A
*616 ANTENNA__288__A
*617 ANTENNA__290__A
*618 ANTENNA__291__A
*619 ANTENNA__292__A
*620 ANTENNA__294__A
*621 ANTENNA__295__A
*622 ANTENNA__296__A
*623 ANTENNA__312__A
*624 ANTENNA__316__A
*625 ANTENNA__320__A
*626 ANTENNA__322__A
*627 ANTENNA__324__A
*628 ANTENNA__326__A
*629 ANTENNA__328__A
*630 ANTENNA__330__A
*631 ANTENNA__332__A
*632 ANTENNA__334__A
*633 ANTENNA__335__A
*634 ANTENNA__336__A
*635 ANTENNA__338__A
*636 ANTENNA__339__A
*637 ANTENNA__340__A
*638 ANTENNA__342__A
*639 ANTENNA__343__A
*640 ANTENNA__344__A
*641 ANTENNA__346__A
*642 ANTENNA__347__A
*643 ANTENNA__348__A
*644 ANTENNA__350__A
*645 ANTENNA__351__A
*646 ANTENNA__352__A
*647 ANTENNA__354__A
*648 ANTENNA__355__A
*649 ANTENNA__356__A
*650 ANTENNA__359__A
*651 ANTENNA__363__A
*652 ANTENNA__367__A
*653 ANTENNA__370__A
*654 ANTENNA__374__A
*655 ANTENNA__378__A
*656 ANTENNA__382__A
*657 ANTENNA__384__A
*658 ANTENNA__386__A
*659 ANTENNA__388__A
*660 ANTENNA__389__A
*661 ANTENNA__390__A
*662 ANTENNA__391__A
*663 ANTENNA__394__A
*664 ANTENNA__396__A
*665 ANTENNA__398__A
*666 ANTENNA__400__A
*667 ANTENNA__402__A
*668 ANTENNA__404__A
*669 ANTENNA__405__A
*670 ANTENNA__406__A
*671 ANTENNA__408__A
*672 ANTENNA__410__A
*673 ANTENNA__411__A
*674 ANTENNA__412__A
*675 ANTENNA__413__A
*676 ANTENNA__416__A
*677 ANTENNA__418__A
*678 ANTENNA__419__A
*679 ANTENNA__420__A
*680 ANTENNA__421__A
*681 ANTENNA__423__A
*682 ANTENNA__424__A
*683 ANTENNA__426__A
*684 ANTENNA__428__A
*685 ANTENNA__429__A
*686 ANTENNA__431__A
*687 ANTENNA__432__A
*688 ANTENNA__433__A
*689 ANTENNA__436__A
*690 ANTENNA__437__A
*691 ANTENNA__438__A
*692 ANTENNA__439__A
*693 ANTENNA__440__A
*694 ANTENNA__441__A
*695 ANTENNA__444__A
*696 ANTENNA__445__A
*697 ANTENNA__446__A
*698 ANTENNA__448__A
*699 ANTENNA__490__A
*700 ANTENNA__491__A
*701 ANTENNA__492__A
*702 ANTENNA__493__A
*703 ANTENNA__494__A
*704 ANTENNA__495__A
*705 ANTENNA__496__A
*706 ANTENNA__497__A
*707 ANTENNA__498__A
*708 ANTENNA__499__A
*709 ANTENNA__512__D
*710 ANTENNA__514__D
*711 ANTENNA__515__D
*712 ANTENNA__518__D
*713 ANTENNA__520__D
*714 ANTENNA__526__D
*715 ANTENNA__527__D
*716 ANTENNA__530__D
*717 ANTENNA__536__D
*718 ANTENNA__537__D
*719 ANTENNA__538__D
*720 ANTENNA__542__D
*721 ANTENNA__543__D
*722 ANTENNA__544__D
*723 ANTENNA__549__D
*724 ANTENNA__550__D
*725 ANTENNA__555__D
*726 ANTENNA__566__D
*727 ANTENNA__567__D
*728 ANTENNA__568__D
*729 ANTENNA__572__D
*730 ANTENNA__573__D
*731 ANTENNA__574__D
*732 ANTENNA__579__D
*733 ANTENNA__580__D
*734 ANTENNA__595__A
*735 ANTENNA__596__A
*736 ANTENNA__599__A
*737 ANTENNA__600__A
*738 ANTENNA__601__A
*739 ANTENNA__602__A
*740 ANTENNA__604__A
*741 ANTENNA__606__A
*742 ANTENNA__607__A
*743 ANTENNA__608__A
*744 ANTENNA__609__A
*745 ANTENNA__611__A
*746 ANTENNA__612__A
*747 ANTENNA__615__A
*748 ANTENNA__616__A
*749 ANTENNA__619__A
*750 ANTENNA__620__A
*751 ANTENNA__621__A
*752 ANTENNA__622__A
*753 ANTENNA__623__A
*754 ANTENNA__624__A
*755 ANTENNA__625__A
*756 ANTENNA__627__A
*757 ANTENNA__628__A
*758 ANTENNA__629__A
*759 ANTENNA__630__A
*760 ANTENNA__631__A
*761 ANTENNA__666__A
*762 ANTENNA__674__A
*763 ANTENNA__680__A
*764 ANTENNA__681__A
*765 ANTENNA__688__A
*766 ANTENNA__693__A
*767 ANTENNA__712__A
*768 ANTENNA__746__A
*769 ANTENNA_clkbuf_0_prog_clk_A
*770 ANTENNA_clkbuf_3_0__f_prog_clk_A
*771 ANTENNA_clkbuf_3_1__f_prog_clk_A
*772 ANTENNA_clkbuf_3_2__f_prog_clk_A
*773 ANTENNA_clkbuf_3_3__f_prog_clk_A
*774 ANTENNA_clkbuf_3_4__f_prog_clk_A
*775 ANTENNA_clkbuf_3_5__f_prog_clk_A
*776 ANTENNA_clkbuf_3_6__f_prog_clk_A
*777 ANTENNA_clkbuf_3_7__f_prog_clk_A
*778 ANTENNA_input10_A
*779 ANTENNA_input11_A
*780 ANTENNA_input12_A
*781 ANTENNA_input13_A
*782 ANTENNA_input14_A
*783 ANTENNA_input15_A
*784 ANTENNA_input16_A
*785 ANTENNA_input17_A
*786 ANTENNA_input18_A
*787 ANTENNA_input19_A
*788 ANTENNA_input1_A
*789 ANTENNA_input20_A
*790 ANTENNA_input21_A
*791 ANTENNA_input22_A
*792 ANTENNA_input23_A
*793 ANTENNA_input24_A
*794 ANTENNA_input25_A
*795 ANTENNA_input26_A
*796 ANTENNA_input27_A
*797 ANTENNA_input28_A
*798 ANTENNA_input29_A
*799 ANTENNA_input2_A
*800 ANTENNA_input30_A
*801 ANTENNA_input31_A
*802 ANTENNA_input32_A
*803 ANTENNA_input33_A
*804 ANTENNA_input34_A
*805 ANTENNA_input35_A
*806 ANTENNA_input36_A
*807 ANTENNA_input37_A
*808 ANTENNA_input38_A
*809 ANTENNA_input39_A
*810 ANTENNA_input3_A
*811 ANTENNA_input40_A
*812 ANTENNA_input4_A
*813 ANTENNA_input5_A
*814 ANTENNA_input6_A
*815 ANTENNA_input7_A
*816 ANTENNA_input8_A
*817 ANTENNA_input9_A
*818 ANTENNA_output45_A
*819 ANTENNA_output46_A
*820 ANTENNA_output49_A
*821 ANTENNA_output50_A
*822 ANTENNA_output56_A
*823 ANTENNA_output58_A
*824 ANTENNA_output59_A
*825 ANTENNA_output63_A
*826 ANTENNA_output76_A
*827 ANTENNA_output83_A
*828 FILLER_0_106
*829 FILLER_0_110
*830 FILLER_0_113
*831 FILLER_0_119
*832 FILLER_0_127
*833 FILLER_0_132
*834 FILLER_0_138
*835 FILLER_0_141
*836 FILLER_0_146
*837 FILLER_0_152
*838 FILLER_0_160
*839 FILLER_0_166
*840 FILLER_0_169
*841 FILLER_0_17
*842 FILLER_0_173
*843 FILLER_0_177
*844 FILLER_0_182
*845 FILLER_0_194
*846 FILLER_0_197
*847 FILLER_0_203
*848 FILLER_0_211
*849 FILLER_0_217
*850 FILLER_0_223
*851 FILLER_0_225
*852 FILLER_0_23
*853 FILLER_0_233
*854 FILLER_0_238
*855 FILLER_0_250
*856 FILLER_0_253
*857 FILLER_0_259
*858 FILLER_0_26
*859 FILLER_0_267
*860 FILLER_0_273
*861 FILLER_0_279
*862 FILLER_0_281
*863 FILLER_0_287
*864 FILLER_0_29
*865 FILLER_0_299
*866 FILLER_0_3
*867 FILLER_0_303
*868 FILLER_0_306
*869 FILLER_0_309
*870 FILLER_0_315
*871 FILLER_0_323
*872 FILLER_0_331
*873 FILLER_0_334
*874 FILLER_0_337
*875 FILLER_0_343
*876 FILLER_0_349
*877 FILLER_0_357
*878 FILLER_0_363
*879 FILLER_0_365
*880 FILLER_0_370
*881 FILLER_0_378
*882 FILLER_0_384
*883 FILLER_0_41
*884 FILLER_0_49
*885 FILLER_0_55
*886 FILLER_0_57
*887 FILLER_0_63
*888 FILLER_0_69
*889 FILLER_0_77
*890 FILLER_0_83
*891 FILLER_0_85
*892 FILLER_0_9
*893 FILLER_0_90
*894 FILLER_0_98
*895 FILLER_10_104
*896 FILLER_10_108
*897 FILLER_10_115
*898 FILLER_10_119
*899 FILLER_10_122
*900 FILLER_10_128
*901 FILLER_10_132
*902 FILLER_10_135
*903 FILLER_10_139
*904 FILLER_10_141
*905 FILLER_10_153
*906 FILLER_10_165
*907 FILLER_10_177
*908 FILLER_10_189
*909 FILLER_10_195
*910 FILLER_10_197
*911 FILLER_10_209
*912 FILLER_10_221
*913 FILLER_10_233
*914 FILLER_10_245
*915 FILLER_10_251
*916 FILLER_10_253
*917 FILLER_10_26
*918 FILLER_10_265
*919 FILLER_10_277
*920 FILLER_10_289
*921 FILLER_10_29
*922 FILLER_10_3
*923 FILLER_10_301
*924 FILLER_10_307
*925 FILLER_10_309
*926 FILLER_10_321
*927 FILLER_10_333
*928 FILLER_10_345
*929 FILLER_10_357
*930 FILLER_10_363
*931 FILLER_10_365
*932 FILLER_10_373
*933 FILLER_10_376
*934 FILLER_10_384
*935 FILLER_10_41
*936 FILLER_10_65
*937 FILLER_10_71
*938 FILLER_10_82
*939 FILLER_10_85
*940 FILLER_10_89
*941 FILLER_10_96
*942 FILLER_11_104
*943 FILLER_11_110
*944 FILLER_11_113
*945 FILLER_11_118
*946 FILLER_11_12
*947 FILLER_11_128
*948 FILLER_11_132
*949 FILLER_11_135
*950 FILLER_11_139
*951 FILLER_11_142
*952 FILLER_11_148
*953 FILLER_11_160
*954 FILLER_11_169
*955 FILLER_11_174
*956 FILLER_11_186
*957 FILLER_11_198
*958 FILLER_11_210
*959 FILLER_11_222
*960 FILLER_11_225
*961 FILLER_11_237
*962 FILLER_11_249
*963 FILLER_11_261
*964 FILLER_11_273
*965 FILLER_11_279
*966 FILLER_11_281
*967 FILLER_11_293
*968 FILLER_11_3
*969 FILLER_11_305
*970 FILLER_11_317
*971 FILLER_11_329
*972 FILLER_11_335
*973 FILLER_11_337
*974 FILLER_11_349
*975 FILLER_11_36
*976 FILLER_11_361
*977 FILLER_11_373
*978 FILLER_11_385
*979 FILLER_11_43
*980 FILLER_11_52
*981 FILLER_11_57
*982 FILLER_11_63
*983 FILLER_11_67
*984 FILLER_11_74
*985 FILLER_11_81
*986 FILLER_11_87
*987 FILLER_11_91
*988 FILLER_12_101
*989 FILLER_12_108
*990 FILLER_12_116
*991 FILLER_12_120
*992 FILLER_12_127
*993 FILLER_12_134
*994 FILLER_12_141
*995 FILLER_12_145
*996 FILLER_12_151
*997 FILLER_12_157
*998 FILLER_12_169
*999 FILLER_12_181
*1000 FILLER_12_193
*1001 FILLER_12_197
*1002 FILLER_12_209
*1003 FILLER_12_221
*1004 FILLER_12_233
*1005 FILLER_12_245
*1006 FILLER_12_251
*1007 FILLER_12_253
*1008 FILLER_12_26
*1009 FILLER_12_265
*1010 FILLER_12_277
*1011 FILLER_12_289
*1012 FILLER_12_29
*1013 FILLER_12_3
*1014 FILLER_12_301
*1015 FILLER_12_307
*1016 FILLER_12_309
*1017 FILLER_12_321
*1018 FILLER_12_33
*1019 FILLER_12_333
*1020 FILLER_12_345
*1021 FILLER_12_357
*1022 FILLER_12_363
*1023 FILLER_12_365
*1024 FILLER_12_373
*1025 FILLER_12_376
*1026 FILLER_12_384
*1027 FILLER_12_54
*1028 FILLER_12_61
*1029 FILLER_12_68
*1030 FILLER_12_75
*1031 FILLER_12_82
*1032 FILLER_12_85
*1033 FILLER_12_94
*1034 FILLER_13_105
*1035 FILLER_13_111
*1036 FILLER_13_113
*1037 FILLER_13_119
*1038 FILLER_13_123
*1039 FILLER_13_130
*1040 FILLER_13_136
*1041 FILLER_13_140
*1042 FILLER_13_151
*1043 FILLER_13_161
*1044 FILLER_13_167
*1045 FILLER_13_169
*1046 FILLER_13_181
*1047 FILLER_13_193
*1048 FILLER_13_205
*1049 FILLER_13_217
*1050 FILLER_13_223
*1051 FILLER_13_225
*1052 FILLER_13_237
*1053 FILLER_13_249
*1054 FILLER_13_25
*1055 FILLER_13_261
*1056 FILLER_13_273
*1057 FILLER_13_279
*1058 FILLER_13_281
*1059 FILLER_13_293
*1060 FILLER_13_3
*1061 FILLER_13_305
*1062 FILLER_13_317
*1063 FILLER_13_329
*1064 FILLER_13_33
*1065 FILLER_13_335
*1066 FILLER_13_337
*1067 FILLER_13_349
*1068 FILLER_13_361
*1069 FILLER_13_373
*1070 FILLER_13_385
*1071 FILLER_13_54
*1072 FILLER_13_57
*1073 FILLER_13_79
*1074 FILLER_13_85
*1075 FILLER_13_92
*1076 FILLER_13_98
*1077 FILLER_14_102
*1078 FILLER_14_108
*1079 FILLER_14_121
*1080 FILLER_14_134
*1081 FILLER_14_141
*1082 FILLER_14_152
*1083 FILLER_14_158
*1084 FILLER_14_162
*1085 FILLER_14_168
*1086 FILLER_14_174
*1087 FILLER_14_186
*1088 FILLER_14_194
*1089 FILLER_14_197
*1090 FILLER_14_209
*1091 FILLER_14_221
*1092 FILLER_14_233
*1093 FILLER_14_245
*1094 FILLER_14_25
*1095 FILLER_14_251
*1096 FILLER_14_253
*1097 FILLER_14_265
*1098 FILLER_14_277
*1099 FILLER_14_289
*1100 FILLER_14_29
*1101 FILLER_14_3
*1102 FILLER_14_301
*1103 FILLER_14_307
*1104 FILLER_14_309
*1105 FILLER_14_321
*1106 FILLER_14_333
*1107 FILLER_14_345
*1108 FILLER_14_35
*1109 FILLER_14_357
*1110 FILLER_14_363
*1111 FILLER_14_365
*1112 FILLER_14_377
*1113 FILLER_14_385
*1114 FILLER_14_43
*1115 FILLER_14_49
*1116 FILLER_14_71
*1117 FILLER_14_82
*1118 FILLER_14_85
*1119 FILLER_14_91
*1120 FILLER_14_95
*1121 FILLER_15_100
*1122 FILLER_15_107
*1123 FILLER_15_111
*1124 FILLER_15_113
*1125 FILLER_15_12
*1126 FILLER_15_124
*1127 FILLER_15_131
*1128 FILLER_15_138
*1129 FILLER_15_151
*1130 FILLER_15_155
*1131 FILLER_15_165
*1132 FILLER_15_169
*1133 FILLER_15_180
*1134 FILLER_15_192
*1135 FILLER_15_196
*1136 FILLER_15_202
*1137 FILLER_15_214
*1138 FILLER_15_222
*1139 FILLER_15_225
*1140 FILLER_15_237
*1141 FILLER_15_249
*1142 FILLER_15_261
*1143 FILLER_15_273
*1144 FILLER_15_279
*1145 FILLER_15_281
*1146 FILLER_15_293
*1147 FILLER_15_3
*1148 FILLER_15_305
*1149 FILLER_15_317
*1150 FILLER_15_329
*1151 FILLER_15_335
*1152 FILLER_15_337
*1153 FILLER_15_349
*1154 FILLER_15_36
*1155 FILLER_15_361
*1156 FILLER_15_373
*1157 FILLER_15_385
*1158 FILLER_15_43
*1159 FILLER_15_51
*1160 FILLER_15_54
*1161 FILLER_15_57
*1162 FILLER_15_61
*1163 FILLER_15_65
*1164 FILLER_15_69
*1165 FILLER_15_9
*1166 FILLER_15_93
*1167 FILLER_16_108
*1168 FILLER_16_118
*1169 FILLER_16_124
*1170 FILLER_16_128
*1171 FILLER_16_135
*1172 FILLER_16_139
*1173 FILLER_16_141
*1174 FILLER_16_152
*1175 FILLER_16_165
*1176 FILLER_16_178
*1177 FILLER_16_191
*1178 FILLER_16_195
*1179 FILLER_16_197
*1180 FILLER_16_201
*1181 FILLER_16_213
*1182 FILLER_16_225
*1183 FILLER_16_237
*1184 FILLER_16_249
*1185 FILLER_16_253
*1186 FILLER_16_26
*1187 FILLER_16_265
*1188 FILLER_16_277
*1189 FILLER_16_289
*1190 FILLER_16_29
*1191 FILLER_16_3
*1192 FILLER_16_301
*1193 FILLER_16_307
*1194 FILLER_16_309
*1195 FILLER_16_321
*1196 FILLER_16_33
*1197 FILLER_16_333
*1198 FILLER_16_345
*1199 FILLER_16_357
*1200 FILLER_16_363
*1201 FILLER_16_365
*1202 FILLER_16_377
*1203 FILLER_16_384
*1204 FILLER_16_54
*1205 FILLER_16_58
*1206 FILLER_16_82
*1207 FILLER_16_85
*1208 FILLER_17_100
*1209 FILLER_17_110
*1210 FILLER_17_113
*1211 FILLER_17_121
*1212 FILLER_17_128
*1213 FILLER_17_135
*1214 FILLER_17_141
*1215 FILLER_17_145
*1216 FILLER_17_152
*1217 FILLER_17_159
*1218 FILLER_17_166
*1219 FILLER_17_169
*1220 FILLER_17_184
*1221 FILLER_17_191
*1222 FILLER_17_197
*1223 FILLER_17_204
*1224 FILLER_17_210
*1225 FILLER_17_222
*1226 FILLER_17_225
*1227 FILLER_17_237
*1228 FILLER_17_249
*1229 FILLER_17_25
*1230 FILLER_17_261
*1231 FILLER_17_273
*1232 FILLER_17_279
*1233 FILLER_17_281
*1234 FILLER_17_293
*1235 FILLER_17_3
*1236 FILLER_17_305
*1237 FILLER_17_317
*1238 FILLER_17_329
*1239 FILLER_17_335
*1240 FILLER_17_337
*1241 FILLER_17_349
*1242 FILLER_17_361
*1243 FILLER_17_373
*1244 FILLER_17_385
*1245 FILLER_17_54
*1246 FILLER_17_57
*1247 FILLER_17_63
*1248 FILLER_17_92
*1249 FILLER_17_96
*1250 FILLER_18_105
*1251 FILLER_18_118
*1252 FILLER_18_122
*1253 FILLER_18_132
*1254 FILLER_18_138
*1255 FILLER_18_141
*1256 FILLER_18_146
*1257 FILLER_18_159
*1258 FILLER_18_167
*1259 FILLER_18_171
*1260 FILLER_18_184
*1261 FILLER_18_190
*1262 FILLER_18_197
*1263 FILLER_18_209
*1264 FILLER_18_216
*1265 FILLER_18_228
*1266 FILLER_18_240
*1267 FILLER_18_253
*1268 FILLER_18_26
*1269 FILLER_18_265
*1270 FILLER_18_277
*1271 FILLER_18_289
*1272 FILLER_18_29
*1273 FILLER_18_3
*1274 FILLER_18_301
*1275 FILLER_18_307
*1276 FILLER_18_309
*1277 FILLER_18_321
*1278 FILLER_18_33
*1279 FILLER_18_333
*1280 FILLER_18_345
*1281 FILLER_18_357
*1282 FILLER_18_363
*1283 FILLER_18_365
*1284 FILLER_18_377
*1285 FILLER_18_385
*1286 FILLER_18_54
*1287 FILLER_18_58
*1288 FILLER_18_82
*1289 FILLER_18_85
*1290 FILLER_18_91
*1291 FILLER_18_98
*1292 FILLER_19_105
*1293 FILLER_19_111
*1294 FILLER_19_113
*1295 FILLER_19_118
*1296 FILLER_19_125
*1297 FILLER_19_138
*1298 FILLER_19_151
*1299 FILLER_19_166
*1300 FILLER_19_169
*1301 FILLER_19_180
*1302 FILLER_19_186
*1303 FILLER_19_192
*1304 FILLER_19_202
*1305 FILLER_19_209
*1306 FILLER_19_216
*1307 FILLER_19_222
*1308 FILLER_19_225
*1309 FILLER_19_229
*1310 FILLER_19_241
*1311 FILLER_19_253
*1312 FILLER_19_265
*1313 FILLER_19_277
*1314 FILLER_19_28
*1315 FILLER_19_281
*1316 FILLER_19_293
*1317 FILLER_19_3
*1318 FILLER_19_305
*1319 FILLER_19_317
*1320 FILLER_19_329
*1321 FILLER_19_335
*1322 FILLER_19_337
*1323 FILLER_19_349
*1324 FILLER_19_361
*1325 FILLER_19_373
*1326 FILLER_19_376
*1327 FILLER_19_384
*1328 FILLER_19_52
*1329 FILLER_19_57
*1330 FILLER_19_63
*1331 FILLER_19_90
*1332 FILLER_19_94
*1333 FILLER_19_98
*1334 FILLER_1_106
*1335 FILLER_1_113
*1336 FILLER_1_125
*1337 FILLER_1_137
*1338 FILLER_1_149
*1339 FILLER_1_15
*1340 FILLER_1_161
*1341 FILLER_1_167
*1342 FILLER_1_169
*1343 FILLER_1_181
*1344 FILLER_1_189
*1345 FILLER_1_193
*1346 FILLER_1_205
*1347 FILLER_1_217
*1348 FILLER_1_223
*1349 FILLER_1_225
*1350 FILLER_1_237
*1351 FILLER_1_249
*1352 FILLER_1_261
*1353 FILLER_1_27
*1354 FILLER_1_273
*1355 FILLER_1_279
*1356 FILLER_1_281
*1357 FILLER_1_285
*1358 FILLER_1_297
*1359 FILLER_1_3
*1360 FILLER_1_309
*1361 FILLER_1_319
*1362 FILLER_1_331
*1363 FILLER_1_335
*1364 FILLER_1_337
*1365 FILLER_1_349
*1366 FILLER_1_361
*1367 FILLER_1_365
*1368 FILLER_1_368
*1369 FILLER_1_376
*1370 FILLER_1_384
*1371 FILLER_1_39
*1372 FILLER_1_51
*1373 FILLER_1_55
*1374 FILLER_1_57
*1375 FILLER_1_65
*1376 FILLER_1_70
*1377 FILLER_1_82
*1378 FILLER_1_9
*1379 FILLER_1_94
*1380 FILLER_20_103
*1381 FILLER_20_111
*1382 FILLER_20_115
*1383 FILLER_20_128
*1384 FILLER_20_134
*1385 FILLER_20_138
*1386 FILLER_20_141
*1387 FILLER_20_148
*1388 FILLER_20_155
*1389 FILLER_20_166
*1390 FILLER_20_179
*1391 FILLER_20_186
*1392 FILLER_20_193
*1393 FILLER_20_197
*1394 FILLER_20_201
*1395 FILLER_20_205
*1396 FILLER_20_209
*1397 FILLER_20_213
*1398 FILLER_20_216
*1399 FILLER_20_227
*1400 FILLER_20_234
*1401 FILLER_20_240