*SPEF "ieee 1481-1999"
*DESIGN "cbx_1__0_"
*DATE "11:11:11 Fri 11 11, 1111"
*VENDOR "OpenRCX"
*PROGRAM "Parallel Extraction"
*VERSION "1.0"
*DESIGN_FLOW "NAME_SCOPE LOCAL" "PIN_CAP NONE"
*DIVIDER /
*DELIMITER :
*BUS_DELIMITER []
*T_UNIT 1 NS
*C_UNIT 1 PF
*R_UNIT 1 OHM
*L_UNIT 1 HENRY

*NAME_MAP
*1 bottom_grid_top_width_0_height_0_subtile_0__pin_outpad_0_
*2 bottom_grid_top_width_0_height_0_subtile_1__pin_outpad_0_
*3 bottom_grid_top_width_0_height_0_subtile_2__pin_outpad_0_
*4 bottom_grid_top_width_0_height_0_subtile_3__pin_outpad_0_
*5 bottom_grid_top_width_0_height_0_subtile_4__pin_outpad_0_
*6 bottom_grid_top_width_0_height_0_subtile_5__pin_outpad_0_
*7 bottom_grid_top_width_0_height_0_subtile_6__pin_outpad_0_
*8 bottom_grid_top_width_0_height_0_subtile_7__pin_outpad_0_
*9 ccff_head
*10 ccff_tail
*11 chanx_left_in[0]
*12 chanx_left_in[10]
*13 chanx_left_in[11]
*14 chanx_left_in[12]
*15 chanx_left_in[13]
*16 chanx_left_in[14]
*17 chanx_left_in[15]
*18 chanx_left_in[16]
*19 chanx_left_in[17]
*20 chanx_left_in[18]
*21 chanx_left_in[1]
*22 chanx_left_in[2]
*23 chanx_left_in[3]
*24 chanx_left_in[4]
*25 chanx_left_in[5]
*26 chanx_left_in[6]
*27 chanx_left_in[7]
*28 chanx_left_in[8]
*29 chanx_left_in[9]
*30 chanx_left_out[0]
*31 chanx_left_out[10]
*32 chanx_left_out[11]
*33 chanx_left_out[12]
*34 chanx_left_out[13]
*35 chanx_left_out[14]
*36 chanx_left_out[15]
*37 chanx_left_out[16]
*38 chanx_left_out[17]
*39 chanx_left_out[18]
*40 chanx_left_out[1]
*41 chanx_left_out[2]
*42 chanx_left_out[3]
*43 chanx_left_out[4]
*44 chanx_left_out[5]
*45 chanx_left_out[6]
*46 chanx_left_out[7]
*47 chanx_left_out[8]
*48 chanx_left_out[9]
*49 chanx_right_in[0]
*50 chanx_right_in[10]
*51 chanx_right_in[11]
*52 chanx_right_in[12]
*53 chanx_right_in[13]
*54 chanx_right_in[14]
*55 chanx_right_in[15]
*56 chanx_right_in[16]
*57 chanx_right_in[17]
*58 chanx_right_in[18]
*59 chanx_right_in[1]
*60 chanx_right_in[2]
*61 chanx_right_in[3]
*62 chanx_right_in[4]
*63 chanx_right_in[5]
*64 chanx_right_in[6]
*65 chanx_right_in[7]
*66 chanx_right_in[8]
*67 chanx_right_in[9]
*68 chanx_right_out[0]
*69 chanx_right_out[10]
*70 chanx_right_out[11]
*71 chanx_right_out[12]
*72 chanx_right_out[13]
*73 chanx_right_out[14]
*74 chanx_right_out[15]
*75 chanx_right_out[16]
*76 chanx_right_out[17]
*77 chanx_right_out[18]
*78 chanx_right_out[1]
*79 chanx_right_out[2]
*80 chanx_right_out[3]
*81 chanx_right_out[4]
*82 chanx_right_out[5]
*83 chanx_right_out[6]
*84 chanx_right_out[7]
*85 chanx_right_out[8]
*86 chanx_right_out[9]
*87 pReset
*88 prog_clk
*89 top_grid_bottom_width_0_height_0_subtile_0__pin_I_10_
*90 top_grid_bottom_width_0_height_0_subtile_0__pin_I_2_
*91 top_grid_bottom_width_0_height_0_subtile_0__pin_I_6_
*94 _000_
*95 _001_
*96 _002_
*97 _003_
*98 _004_
*99 _005_
*100 _006_
*101 _007_
*102 _008_
*103 _009_
*104 _010_
*105 _011_
*106 _012_
*107 _013_
*108 _014_
*109 _015_
*110 _016_
*111 _017_
*112 _018_
*113 _019_
*114 _020_
*115 _021_
*116 _022_
*117 _023_
*118 _024_
*119 _025_
*120 _026_
*121 _027_
*122 _028_
*123 _029_
*124 _030_
*125 _031_
*126 _032_
*127 _033_
*128 _034_
*129 _035_
*130 _036_
*131 _037_
*132 _038_
*133 _039_
*134 _040_
*135 _041_
*136 _042_
*137 _043_
*138 _044_
*139 _045_
*140 _046_
*141 _047_
*142 _048_
*143 _049_
*144 _050_
*145 _051_
*146 _052_
*147 _053_
*148 _054_
*149 _055_
*150 _056_
*151 _057_
*152 _058_
*153 _059_
*154 _060_
*155 _061_
*156 _062_
*157 _063_
*158 _064_
*159 _065_
*160 _066_
*161 _067_
*162 _068_
*163 _069_
*164 _070_
*165 _071_
*166 _072_
*167 _073_
*168 _074_
*169 _075_
*170 _076_
*171 _077_
*172 _078_
*173 _079_
*174 _080_
*175 _081_
*176 _082_
*177 _083_
*178 _084_
*179 _085_
*180 _086_
*181 _087_
*182 _088_
*183 _089_
*184 _090_
*185 _091_
*186 _092_
*187 _093_
*188 _094_
*189 _095_
*190 _096_
*191 _097_
*192 _098_
*193 _099_
*194 _100_
*195 _101_
*196 _102_
*197 _103_
*198 _104_
*199 _105_
*200 _106_
*201 _107_
*202 _108_
*203 _109_
*204 _110_
*205 _111_
*206 _112_
*207 _113_
*208 _114_
*209 _115_
*210 _116_
*211 _117_
*212 _118_
*213 _119_
*214 _120_
*215 _121_
*216 _122_
*217 _123_
*218 _124_
*219 _125_
*220 _126_
*221 _127_
*222 _128_
*223 _129_
*224 _130_
*225 _131_
*226 _132_
*227 _133_
*228 _134_
*229 _135_
*230 _136_
*231 _137_
*232 _138_
*233 _139_
*234 _140_
*235 _141_
*236 _142_
*237 _143_
*238 _144_
*239 _145_
*240 _146_
*241 _147_
*242 _148_
*243 _149_
*244 _150_
*245 _151_
*246 _152_
*247 _153_
*248 _154_
*249 _155_
*250 _156_
*251 _157_
*252 _158_
*253 _159_
*254 _160_
*255 _161_
*256 _162_
*257 _163_
*258 _164_
*259 _165_
*260 _166_
*261 _167_
*262 _168_
*263 _169_
*264 _170_
*265 _171_
*266 _172_
*267 _173_
*268 _174_
*269 _175_
*270 _176_
*271 _177_
*272 _178_
*273 _179_
*274 _180_
*275 _181_
*276 _182_
*277 _183_
*278 _184_
*279 _185_
*280 _186_
*281 _187_
*282 _188_
*283 _189_
*284 _190_
*285 _191_
*286 _192_
*287 _193_
*288 _194_
*289 _195_
*290 _196_
*291 _197_
*292 _198_
*293 _199_
*294 _200_
*295 _201_
*296 mem_bottom_ipin_0\.DFFR_0_\.Q
*297 mem_bottom_ipin_0\.DFFR_1_\.Q
*298 mem_bottom_ipin_0\.DFFR_2_\.Q
*299 mem_bottom_ipin_0\.DFFR_3_\.Q
*300 mem_bottom_ipin_0\.DFFR_4_\.Q
*301 mem_bottom_ipin_0\.DFFR_5_\.Q
*302 mem_bottom_ipin_1\.DFFR_0_\.Q
*303 mem_bottom_ipin_1\.DFFR_1_\.Q
*304 mem_bottom_ipin_1\.DFFR_2_\.Q
*305 mem_bottom_ipin_1\.DFFR_3_\.Q
*306 mem_bottom_ipin_1\.DFFR_4_\.Q
*307 mem_bottom_ipin_1\.DFFR_5_\.Q
*308 mem_bottom_ipin_2\.DFFR_0_\.Q
*309 mem_bottom_ipin_2\.DFFR_1_\.Q
*310 mem_bottom_ipin_2\.DFFR_2_\.Q
*311 mem_bottom_ipin_2\.DFFR_3_\.Q
*312 mem_bottom_ipin_2\.DFFR_4_\.Q
*313 mem_bottom_ipin_2\.DFFR_5_\.Q
*314 mem_top_ipin_0\.DFFR_0_\.Q
*315 mem_top_ipin_0\.DFFR_1_\.Q
*316 mem_top_ipin_0\.DFFR_2_\.Q
*317 mem_top_ipin_0\.DFFR_3_\.Q
*318 mem_top_ipin_0\.DFFR_4_\.Q
*319 mem_top_ipin_0\.DFFR_5_\.Q
*320 mem_top_ipin_1\.DFFR_0_\.Q
*321 mem_top_ipin_1\.DFFR_1_\.Q
*322 mem_top_ipin_1\.DFFR_2_\.Q
*323 mem_top_ipin_1\.DFFR_3_\.Q
*324 mem_top_ipin_1\.DFFR_4_\.Q
*325 mem_top_ipin_1\.DFFR_5_\.Q
*326 mem_top_ipin_2\.DFFR_0_\.Q
*327 mem_top_ipin_2\.DFFR_1_\.Q
*328 mem_top_ipin_2\.DFFR_2_\.Q
*329 mem_top_ipin_2\.DFFR_3_\.Q
*330 mem_top_ipin_2\.DFFR_4_\.Q
*331 mem_top_ipin_2\.DFFR_5_\.Q
*332 mem_top_ipin_3\.DFFR_0_\.Q
*333 mem_top_ipin_3\.DFFR_1_\.Q
*334 mem_top_ipin_3\.DFFR_2_\.Q
*335 mem_top_ipin_3\.DFFR_3_\.Q
*336 mem_top_ipin_3\.DFFR_4_\.Q
*337 mem_top_ipin_3\.DFFR_5_\.Q
*338 mem_top_ipin_4\.DFFR_0_\.Q
*339 mem_top_ipin_4\.DFFR_1_\.Q
*340 mem_top_ipin_4\.DFFR_2_\.Q
*341 mem_top_ipin_4\.DFFR_3_\.Q
*342 mem_top_ipin_4\.DFFR_4_\.Q
*343 mem_top_ipin_4\.DFFR_5_\.Q
*344 mem_top_ipin_5\.DFFR_0_\.Q
*345 mem_top_ipin_5\.DFFR_1_\.Q
*346 mem_top_ipin_5\.DFFR_2_\.Q
*347 mem_top_ipin_5\.DFFR_3_\.Q
*348 mem_top_ipin_5\.DFFR_4_\.Q
*349 mem_top_ipin_5\.DFFR_5_\.Q
*350 mem_top_ipin_6\.DFFR_0_\.Q
*351 mem_top_ipin_6\.DFFR_1_\.Q
*352 mem_top_ipin_6\.DFFR_2_\.Q
*353 mem_top_ipin_6\.DFFR_3_\.Q
*354 mem_top_ipin_6\.DFFR_4_\.Q
*355 mem_top_ipin_6\.DFFR_5_\.Q
*356 mem_top_ipin_7\.DFFR_0_\.Q
*357 mem_top_ipin_7\.DFFR_1_\.Q
*358 mem_top_ipin_7\.DFFR_2_\.Q
*359 mem_top_ipin_7\.DFFR_3_\.Q
*360 mem_top_ipin_7\.DFFR_4_\.Q
*361 mux_bottom_ipin_0\.INVTX1_0_\.out
*362 mux_bottom_ipin_0\.INVTX1_1_\.out
*363 mux_bottom_ipin_0\.INVTX1_2_\.out
*364 mux_bottom_ipin_0\.INVTX1_3_\.out
*365 mux_bottom_ipin_0\.INVTX1_4_\.out
*366 mux_bottom_ipin_0\.INVTX1_5_\.out
*367 mux_bottom_ipin_0\.INVTX1_6_\.out
*368 mux_bottom_ipin_0\.INVTX1_7_\.out
*369 mux_bottom_ipin_0\.mux_2level_tapbuf_basis_input3_mem3_0_out
*370 mux_bottom_ipin_0\.mux_2level_tapbuf_basis_input3_mem3_1_out
*371 mux_bottom_ipin_0\.mux_2level_tapbuf_basis_input3_mem3_2_out
*372 mux_bottom_ipin_0\.mux_2level_tapbuf_basis_input3_mem3_3_out
*373 mux_bottom_ipin_1\.INVTX1_2_\.out
*374 mux_bottom_ipin_1\.INVTX1_3_\.out
*375 mux_bottom_ipin_1\.INVTX1_4_\.out
*376 mux_bottom_ipin_1\.INVTX1_5_\.out
*377 mux_bottom_ipin_1\.INVTX1_6_\.out
*378 mux_bottom_ipin_1\.INVTX1_7_\.out
*379 mux_bottom_ipin_1\.mux_2level_tapbuf_basis_input3_mem3_0_out
*380 mux_bottom_ipin_1\.mux_2level_tapbuf_basis_input3_mem3_1_out
*381 mux_bottom_ipin_1\.mux_2level_tapbuf_basis_input3_mem3_2_out
*382 mux_bottom_ipin_1\.mux_2level_tapbuf_basis_input3_mem3_3_out
*383 mux_bottom_ipin_2\.INVTX1_2_\.out
*384 mux_bottom_ipin_2\.INVTX1_3_\.out
*385 mux_bottom_ipin_2\.INVTX1_4_\.out
*386 mux_bottom_ipin_2\.INVTX1_5_\.out
*387 mux_bottom_ipin_2\.mux_2level_tapbuf_basis_input3_mem3_0_out
*388 mux_bottom_ipin_2\.mux_2level_tapbuf_basis_input3_mem3_1_out
*389 mux_bottom_ipin_2\.mux_2level_tapbuf_basis_input3_mem3_2_out
*390 mux_top_ipin_0\.INVTX1_2_\.out
*391 mux_top_ipin_0\.INVTX1_3_\.out
*392 mux_top_ipin_0\.INVTX1_4_\.out
*393 mux_top_ipin_0\.INVTX1_5_\.out
*394 mux_top_ipin_0\.INVTX1_6_\.out
*395 mux_top_ipin_0\.INVTX1_7_\.out
*396 mux_top_ipin_0\.mux_2level_tapbuf_basis_input3_mem3_0_out
*397 mux_top_ipin_0\.mux_2level_tapbuf_basis_input3_mem3_1_out
*398 mux_top_ipin_0\.mux_2level_tapbuf_basis_input3_mem3_2_out
*399 mux_top_ipin_0\.mux_2level_tapbuf_basis_input3_mem3_3_out
*400 mux_top_ipin_1\.INVTX1_2_\.out
*401 mux_top_ipin_1\.INVTX1_3_\.out
*402 mux_top_ipin_1\.INVTX1_4_\.out
*403 mux_top_ipin_1\.INVTX1_5_\.out
*404 mux_top_ipin_1\.INVTX1_6_\.out
*405 mux_top_ipin_1\.INVTX1_7_\.out
*406 mux_top_ipin_1\.mux_2level_tapbuf_basis_input3_mem3_0_out
*407 mux_top_ipin_1\.mux_2level_tapbuf_basis_input3_mem3_1_out
*408 mux_top_ipin_1\.mux_2level_tapbuf_basis_input3_mem3_2_out
*409 mux_top_ipin_1\.mux_2level_tapbuf_basis_input3_mem3_3_out
*410 mux_top_ipin_2\.INVTX1_2_\.out
*411 mux_top_ipin_2\.INVTX1_3_\.out
*412 mux_top_ipin_2\.INVTX1_6_\.out
*413 mux_top_ipin_2\.INVTX1_7_\.out
*414 mux_top_ipin_2\.mux_2level_tapbuf_basis_input3_mem3_0_out
*415 mux_top_ipin_2\.mux_2level_tapbuf_basis_input3_mem3_1_out
*416 mux_top_ipin_2\.mux_2level_tapbuf_basis_input3_mem3_2_out
*417 mux_top_ipin_2\.mux_2level_tapbuf_basis_input3_mem3_3_out
*418 mux_top_ipin_3\.mux_2level_tapbuf_basis_input3_mem3_0_out
*419 mux_top_ipin_3\.mux_2level_tapbuf_basis_input3_mem3_1_out
*420 mux_top_ipin_3\.mux_2level_tapbuf_basis_input3_mem3_2_out
*421 mux_top_ipin_3\.mux_2level_tapbuf_basis_input3_mem3_3_out
*422 mux_top_ipin_4\.mux_2level_tapbuf_basis_input3_mem3_0_out
*423 mux_top_ipin_4\.mux_2level_tapbuf_basis_input3_mem3_1_out
*424 mux_top_ipin_4\.mux_2level_tapbuf_basis_input3_mem3_2_out
*425 mux_top_ipin_4\.mux_2level_tapbuf_basis_input3_mem3_3_out
*426 mux_top_ipin_5\.INVTX1_4_\.out
*427 mux_top_ipin_5\.INVTX1_5_\.out
*428 mux_top_ipin_5\.INVTX1_6_\.out
*429 mux_top_ipin_5\.INVTX1_7_\.out
*430 mux_top_ipin_5\.mux_2level_tapbuf_basis_input3_mem3_0_out
*431 mux_top_ipin_5\.mux_2level_tapbuf_basis_input3_mem3_1_out
*432 mux_top_ipin_5\.mux_2level_tapbuf_basis_input3_mem3_2_out
*433 mux_top_ipin_5\.mux_2level_tapbuf_basis_input3_mem3_3_out
*434 mux_top_ipin_6\.mux_2level_tapbuf_basis_input3_mem3_0_out
*435 mux_top_ipin_6\.mux_2level_tapbuf_basis_input3_mem3_1_out
*436 mux_top_ipin_6\.mux_2level_tapbuf_basis_input3_mem3_2_out
*437 mux_top_ipin_6\.mux_2level_tapbuf_basis_input3_mem3_3_out
*438 mux_top_ipin_7\.mux_2level_tapbuf_basis_input3_mem3_0_out
*439 mux_top_ipin_7\.mux_2level_tapbuf_basis_input3_mem3_1_out
*440 mux_top_ipin_7\.mux_2level_tapbuf_basis_input3_mem3_2_out
*441 mux_top_ipin_7\.mux_2level_tapbuf_basis_input3_mem3_3_out
*442 net1
*443 net10
*444 net100
*445 net101
*446 net11
*447 net12
*448 net13
*449 net14
*450 net15
*451 net16
*452 net17
*453 net18
*454 net19
*455 net2
*456 net20
*457 net21
*458 net22
*459 net23
*460 net24
*461 net25
*462 net26
*463 net27
*464 net28
*465 net29
*466 net3
*467 net30
*468 net31
*469 net32
*470 net33
*471 net34
*472 net35
*473 net36
*474 net37
*475 net38
*476 net39
*477 net4
*478 net40
*479 net41
*480 net42
*481 net43
*482 net44
*483 net45
*484 net46
*485 net47
*486 net48
*487 net49
*488 net5
*489 net50
*490 net51
*491 net52
*492 net53
*493 net54
*494 net55
*495 net56
*496 net57
*497 net58
*498 net59
*499 net6
*500 net60
*501 net61
*502 net62
*503 net63
*504 net64
*505 net65
*506 net66
*507 net67
*508 net68
*509 net69
*510 net7
*511 net70
*512 net71
*513 net72
*514 net73
*515 net74
*516 net75
*517 net76
*518 net77
*519 net78
*520 net79
*521 net8
*522 net80
*523 net81
*524 net82
*525 net83
*526 net84
*527 net85
*528 net86
*529 net87
*530 net88
*531 net89
*532 net9
*533 net90
*534 net91
*535 net92
*536 net93
*537 net94
*538 net95
*539 net96
*540 net97
*541 net98
*542 net99
*543 ANTENNA__213__A
*544 ANTENNA__223__A
*545 ANTENNA__224__A
*546 ANTENNA__226__A
*547 ANTENNA__227__A
*548 ANTENNA__228__A
*549 ANTENNA__231__A
*550 ANTENNA__232__A
*551 ANTENNA__235__A
*552 ANTENNA__237__A
*553 ANTENNA__239__A
*554 ANTENNA__241__A
*555 ANTENNA__243__A
*556 ANTENNA__245__A
*557 ANTENNA__247__A
*558 ANTENNA__248__A
*559 ANTENNA__249__A
*560 ANTENNA__251__A
*561 ANTENNA__252__A
*562 ANTENNA__253__A
*563 ANTENNA__255__A
*564 ANTENNA__256__A
*565 ANTENNA__257__A
*566 ANTENNA__258__A
*567 ANTENNA__260__A
*568 ANTENNA__264__A
*569 ANTENNA__266__A
*570 ANTENNA__268__A
*571 ANTENNA__271__A
*572 ANTENNA__272__A
*573 ANTENNA__273__A
*574 ANTENNA__275__A
*575 ANTENNA__276__A
*576 ANTENNA__277__A
*577 ANTENNA__279__A
*578 ANTENNA__280__A
*579 ANTENNA__281__A
*580 ANTENNA__283__A
*581 ANTENNA__284__A
*582 ANTENNA__285__A
*583 ANTENNA__287__A
*584 ANTENNA__288__A
*585 ANTENNA__289__A
*586 ANTENNA__291__A
*587 ANTENNA__292__A
*588 ANTENNA__293__A
*589 ANTENNA__296__A
*590 ANTENNA__297__A
*591 ANTENNA__300__A
*592 ANTENNA__301__A
*593 ANTENNA__304__A
*594 ANTENNA__305__A
*595 ANTENNA__307__A
*596 ANTENNA__308__A
*597 ANTENNA__309__A
*598 ANTENNA__311__A
*599 ANTENNA__312__A
*600 ANTENNA__313__A
*601 ANTENNA__314__A
*602 ANTENNA__315__A
*603 ANTENNA__316__A
*604 ANTENNA__317__A
*605 ANTENNA__319__A
*606 ANTENNA__320__A
*607 ANTENNA__321__A
*608 ANTENNA__323__A
*609 ANTENNA__324__A
*610 ANTENNA__325__A
*611 ANTENNA__327__A
*612 ANTENNA__328__A
*613 ANTENNA__329__A
*614 ANTENNA__331__A
*615 ANTENNA__333__A
*616 ANTENNA__335__A
*617 ANTENNA__336__A
*618 ANTENNA__337__A
*619 ANTENNA__338__A
*620 ANTENNA__339__A
*621 ANTENNA__340__A
*622 ANTENNA__341__A
*623 ANTENNA__342__A
*624 ANTENNA__343__A
*625 ANTENNA__344__A
*626 ANTENNA__345__A
*627 ANTENNA__347__A
*628 ANTENNA__348__A
*629 ANTENNA__349__A
*630 ANTENNA__350__A
*631 ANTENNA__352__A
*632 ANTENNA__353__A
*633 ANTENNA__355__A
*634 ANTENNA__360__A
*635 ANTENNA__361__A
*636 ANTENNA__362__A
*637 ANTENNA__363__A
*638 ANTENNA__364__A
*639 ANTENNA__365__A
*640 ANTENNA__366__A
*641 ANTENNA__368__A
*642 ANTENNA__370__A
*643 ANTENNA__371__A
*644 ANTENNA__372__A
*645 ANTENNA__373__A
*646 ANTENNA__375__A
*647 ANTENNA__376__A
*648 ANTENNA__377__A
*649 ANTENNA__380__A
*650 ANTENNA__381__A
*651 ANTENNA__383__A
*652 ANTENNA__384__A
*653 ANTENNA__387__A
*654 ANTENNA__389__A
*655 ANTENNA__390__A
*656 ANTENNA__393__A
*657 ANTENNA__394__A
*658 ANTENNA__395__A
*659 ANTENNA__396__A
*660 ANTENNA__397__A
*661 ANTENNA__398__A
*662 ANTENNA__399__A
*663 ANTENNA__400__A
*664 ANTENNA__401__A
*665 ANTENNA__402__A
*666 ANTENNA__404__A
*667 ANTENNA__405__A
*668 ANTENNA__406__A
*669 ANTENNA__407__A
*670 ANTENNA__408__A
*671 ANTENNA__409__A
*672 ANTENNA__410__A
*673 ANTENNA__411__A
*674 ANTENNA__412__A
*675 ANTENNA__413__A
*676 ANTENNA__415__A
*677 ANTENNA__416__A
*678 ANTENNA__417__A
*679 ANTENNA__418__A
*680 ANTENNA__419__A
*681 ANTENNA__420__A
*682 ANTENNA__421__A
*683 ANTENNA__422__A
*684 ANTENNA__423__A
*685 ANTENNA__424__A
*686 ANTENNA__426__A
*687 ANTENNA__427__A
*688 ANTENNA__428__A
*689 ANTENNA__429__A
*690 ANTENNA__430__A
*691 ANTENNA__431__A
*692 ANTENNA__432__A
*693 ANTENNA__433__A
*694 ANTENNA__434__A
*695 ANTENNA__435__A
*696 ANTENNA__437__A
*697 ANTENNA__438__A
*698 ANTENNA__439__A
*699 ANTENNA__440__A
*700 ANTENNA__441__A
*701 ANTENNA__442__A
*702 ANTENNA__443__A
*703 ANTENNA__444__A
*704 ANTENNA__445__A
*705 ANTENNA__446__A
*706 ANTENNA__464__CLK
*707 ANTENNA__465__CLK
*708 ANTENNA__466__CLK
*709 ANTENNA__466__D
*710 ANTENNA__467__CLK
*711 ANTENNA__467__D
*712 ANTENNA__468__CLK
*713 ANTENNA__468__D
*714 ANTENNA__469__CLK
*715 ANTENNA__469__D
*716 ANTENNA__470__CLK
*717 ANTENNA__471__CLK
*718 ANTENNA__472__CLK
*719 ANTENNA__472__D
*720 ANTENNA__473__CLK
*721 ANTENNA__473__D
*722 ANTENNA__474__CLK
*723 ANTENNA__474__D
*724 ANTENNA__475__CLK
*725 ANTENNA__476__CLK
*726 ANTENNA__476__D
*727 ANTENNA__477__CLK
*728 ANTENNA__478__CLK
*729 ANTENNA__478__D
*730 ANTENNA__479__CLK
*731 ANTENNA__479__D
*732 ANTENNA__480__CLK
*733 ANTENNA__480__D
*734 ANTENNA__481__CLK
*735 ANTENNA__482__CLK
*736 ANTENNA__483__CLK
*737 ANTENNA__484__CLK
*738 ANTENNA__484__D
*739 ANTENNA__485__CLK
*740 ANTENNA__485__D
*741 ANTENNA__486__CLK
*742 ANTENNA__487__CLK
*743 ANTENNA__488__CLK
*744 ANTENNA__489__CLK
*745 ANTENNA__490__CLK
*746 ANTENNA__490__D
*747 ANTENNA__491__CLK
*748 ANTENNA__491__D
*749 ANTENNA__492__CLK
*750 ANTENNA__492__D
*751 ANTENNA__493__CLK
*752 ANTENNA__494__CLK
*753 ANTENNA__495__CLK
*754 ANTENNA__496__CLK
*755 ANTENNA__496__D
*756 ANTENNA__497__CLK
*757 ANTENNA__497__D
*758 ANTENNA__498__CLK
*759 ANTENNA__498__D
*760 ANTENNA__499__CLK
*761 ANTENNA__500__CLK
*762 ANTENNA__500__D
*763 ANTENNA__501__CLK
*764 ANTENNA__501__D
*765 ANTENNA__502__CLK
*766 ANTENNA__502__D
*767 ANTENNA__503__CLK
*768 ANTENNA__504__CLK
*769 ANTENNA__505__CLK
*770 ANTENNA__506__CLK
*771 ANTENNA__507__CLK
*772 ANTENNA__508__CLK
*773 ANTENNA__508__D
*774 ANTENNA__509__CLK
*775 ANTENNA__509__D
*776 ANTENNA__510__CLK
*777 ANTENNA__510__D
*778 ANTENNA__511__CLK
*779 ANTENNA__512__CLK
*780 ANTENNA__513__CLK
*781 ANTENNA__514__CLK
*782 ANTENNA__515__CLK
*783 ANTENNA__515__D
*784 ANTENNA__516__CLK
*785 ANTENNA__516__D
*786 ANTENNA__517__CLK
*787 ANTENNA__518__CLK
*788 ANTENNA__519__CLK
*789 ANTENNA__520__CLK
*790 ANTENNA__520__D
*791 ANTENNA__520__RESET_B
*792 ANTENNA__521__CLK
*793 ANTENNA__522__CLK
*794 ANTENNA__522__D
*795 ANTENNA__523__CLK
*796 ANTENNA__524__CLK
*797 ANTENNA__525__CLK
*798 ANTENNA__525__D
*799 ANTENNA__525__RESET_B
*800 ANTENNA__526__CLK
*801 ANTENNA__527__CLK
*802 ANTENNA__528__CLK
*803 ANTENNA__529__CLK
*804 ANTENNA__541__A
*805 ANTENNA__542__A
*806 ANTENNA__543__A
*807 ANTENNA__546__A
*808 ANTENNA__547__A
*809 ANTENNA__548__A
*810 ANTENNA__549__A
*811 ANTENNA__550__A
*812 ANTENNA__553__A
*813 ANTENNA__554__A
*814 ANTENNA__555__A
*815 ANTENNA__556__A
*816 ANTENNA__557__A
*817 ANTENNA__559__A
*818 ANTENNA__560__A
*819 ANTENNA__562__A
*820 ANTENNA__563__A
*821 ANTENNA__564__A
*822 ANTENNA__565__A
*823 ANTENNA__568__A
*824 ANTENNA__570__A
*825 ANTENNA__571__A
*826 ANTENNA__572__A
*827 ANTENNA__573__A
*828 ANTENNA__574__A
*829 ANTENNA__576__A
*830 ANTENNA__577__A
*831 ANTENNA__578__A
*832 ANTENNA__593__A
*833 ANTENNA__613__A
*834 ANTENNA__615__A
*835 ANTENNA__621__A
*836 ANTENNA__640__TE_B
*837 ANTENNA__653__A
*838 ANTENNA__671__A
*839 ANTENNA__693__A
*840 ANTENNA_input10_A
*841 ANTENNA_input11_A
*842 ANTENNA_input12_A
*843 ANTENNA_input13_A
*844 ANTENNA_input14_A
*845 ANTENNA_input15_A
*846 ANTENNA_input16_A
*847 ANTENNA_input17_A
*848 ANTENNA_input18_A
*849 ANTENNA_input19_A
*850 ANTENNA_input1_A
*851 ANTENNA_input20_A
*852 ANTENNA_input21_A
*853 ANTENNA_input22_A
*854 ANTENNA_input23_A
*855 ANTENNA_input24_A
*856 ANTENNA_input25_A
*857 ANTENNA_input26_A
*858 ANTENNA_input27_A
*859 ANTENNA_input28_A
*860 ANTENNA_input29_A
*861 ANTENNA_input2_A
*862 ANTENNA_input30_A
*863 ANTENNA_input31_A
*864 ANTENNA_input32_A
*865 ANTENNA_input33_A
*866 ANTENNA_input34_A
*867 ANTENNA_input35_A
*868 ANTENNA_input36_A
*869 ANTENNA_input37_A
*870 ANTENNA_input38_A
*871 ANTENNA_input39_A
*872 ANTENNA_input3_A
*873 ANTENNA_input40_A
*874 ANTENNA_input4_A
*875 ANTENNA_input5_A
*876 ANTENNA_input6_A
*877 ANTENNA_input7_A
*878 ANTENNA_input8_A
*879 ANTENNA_input9_A
*880 ANTENNA_output49_A
*881 ANTENNA_output56_A
*882 ANTENNA_output57_A
*883 ANTENNA_output58_A
*884 ANTENNA_output59_A
*885 ANTENNA_output64_A
*886 ANTENNA_output74_A
*887 ANTENNA_output79_A
*888 ANTENNA_output80_A
*889 ANTENNA_output82_A
*890 ANTENNA_output86_A
*891 ANTENNA_output87_A
*892 FILLER_0_104
*893 FILLER_0_110
*894 FILLER_0_113
*895 FILLER_0_119
*896 FILLER_0_127
*897 FILLER_0_133
*898 FILLER_0_139
*899 FILLER_0_141
*900 FILLER_0_146
*901 FILLER_0_154
*902 FILLER_0_166
*903 FILLER_0_169
*904 FILLER_0_17
*905 FILLER_0_175
*906 FILLER_0_181
*907 FILLER_0_189
*908 FILLER_0_195
*909 FILLER_0_197
*910 FILLER_0_205
*911 FILLER_0_210
*912 FILLER_0_218
*913 FILLER_0_222
*914 FILLER_0_225
*915 FILLER_0_23
*916 FILLER_0_231
*917 FILLER_0_237
*918 FILLER_0_245
*919 FILLER_0_251
*920 FILLER_0_253
*921 FILLER_0_26
*922 FILLER_0_261
*923 FILLER_0_266
*924 FILLER_0_278
*925 FILLER_0_281
*926 FILLER_0_287
*927 FILLER_0_29
*928 FILLER_0_295
*929 FILLER_0_3
*930 FILLER_0_301
*931 FILLER_0_307
*932 FILLER_0_309
*933 FILLER_0_321
*934 FILLER_0_329
*935 FILLER_0_334
*936 FILLER_0_337
*937 FILLER_0_343
*938 FILLER_0_349
*939 FILLER_0_357
*940 FILLER_0_363
*941 FILLER_0_365
*942 FILLER_0_371
*943 FILLER_0_377
*944 FILLER_0_382
*945 FILLER_0_390
*946 FILLER_0_393
*947 FILLER_0_399
*948 FILLER_0_405
*949 FILLER_0_41
*950 FILLER_0_49
*951 FILLER_0_55
*952 FILLER_0_57
*953 FILLER_0_63
*954 FILLER_0_69
*955 FILLER_0_77
*956 FILLER_0_82
*957 FILLER_0_85
*958 FILLER_0_9
*959 FILLER_0_90
*960 FILLER_10_109
*961 FILLER_10_121
*962 FILLER_10_133
*963 FILLER_10_139
*964 FILLER_10_141
*965 FILLER_10_15
*966 FILLER_10_153
*967 FILLER_10_165
*968 FILLER_10_177
*969 FILLER_10_189
*970 FILLER_10_195
*971 FILLER_10_197
*972 FILLER_10_209
*973 FILLER_10_221
*974 FILLER_10_233
*975 FILLER_10_245
*976 FILLER_10_251
*977 FILLER_10_253
*978 FILLER_10_265
*979 FILLER_10_27
*980 FILLER_10_277
*981 FILLER_10_289
*982 FILLER_10_29
*983 FILLER_10_3
*984 FILLER_10_301
*985 FILLER_10_307
*986 FILLER_10_309
*987 FILLER_10_321
*988 FILLER_10_333
*989 FILLER_10_345
*990 FILLER_10_357
*991 FILLER_10_363
*992 FILLER_10_365
*993 FILLER_10_377
*994 FILLER_10_389
*995 FILLER_10_401
*996 FILLER_10_41
*997 FILLER_10_53
*998 FILLER_10_65
*999 FILLER_10_77
*1000 FILLER_10_83
*1001 FILLER_10_85
*1002 FILLER_10_97
*1003 FILLER_11_105
*1004 FILLER_11_111
*1005 FILLER_11_113
*1006 FILLER_11_125
*1007 FILLER_11_137
*1008 FILLER_11_149
*1009 FILLER_11_161
*1010 FILLER_11_167
*1011 FILLER_11_169
*1012 FILLER_11_181
*1013 FILLER_11_19
*1014 FILLER_11_193
*1015 FILLER_11_205
*1016 FILLER_11_217
*1017 FILLER_11_223
*1018 FILLER_11_225
*1019 FILLER_11_237
*1020 FILLER_11_249
*1021 FILLER_11_261
*1022 FILLER_11_273
*1023 FILLER_11_279
*1024 FILLER_11_281
*1025 FILLER_11_293
*1026 FILLER_11_3
*1027 FILLER_11_305
*1028 FILLER_11_31
*1029 FILLER_11_317
*1030 FILLER_11_329
*1031 FILLER_11_335
*1032 FILLER_11_337
*1033 FILLER_11_349
*1034 FILLER_11_361
*1035 FILLER_11_373
*1036 FILLER_11_385
*1037 FILLER_11_391
*1038 FILLER_11_393
*1039 FILLER_11_405
*1040 FILLER_11_43
*1041 FILLER_11_55
*1042 FILLER_11_57
*1043 FILLER_11_69
*1044 FILLER_11_7
*1045 FILLER_11_81
*1046 FILLER_11_93
*1047 FILLER_12_109
*1048 FILLER_12_121
*1049 FILLER_12_133
*1050 FILLER_12_139
*1051 FILLER_12_141
*1052 FILLER_12_153
*1053 FILLER_12_165
*1054 FILLER_12_177
*1055 FILLER_12_189
*1056 FILLER_12_195
*1057 FILLER_12_197
*1058 FILLER_12_209
*1059 FILLER_12_21
*1060 FILLER_12_221
*1061 FILLER_12_233
*1062 FILLER_12_245
*1063 FILLER_12_251
*1064 FILLER_12_253
*1065 FILLER_12_265
*1066 FILLER_12_27
*1067 FILLER_12_277
*1068 FILLER_12_289
*1069 FILLER_12_29
*1070 FILLER_12_3
*1071 FILLER_12_301
*1072 FILLER_12_307
*1073 FILLER_12_309
*1074 FILLER_12_321
*1075 FILLER_12_333
*1076 FILLER_12_345
*1077 FILLER_12_357
*1078 FILLER_12_363
*1079 FILLER_12_365
*1080 FILLER_12_377
*1081 FILLER_12_389
*1082 FILLER_12_405
*1083 FILLER_12_41
*1084 FILLER_12_53
*1085 FILLER_12_65
*1086 FILLER_12_77
*1087 FILLER_12_83
*1088 FILLER_12_85
*1089 FILLER_12_9
*1090 FILLER_12_97
*1091 FILLER_13_105
*1092 FILLER_13_111
*1093 FILLER_13_113
*1094 FILLER_13_125
*1095 FILLER_13_137
*1096 FILLER_13_149
*1097 FILLER_13_15
*1098 FILLER_13_161
*1099 FILLER_13_167
*1100 FILLER_13_169
*1101 FILLER_13_181
*1102 FILLER_13_193
*1103 FILLER_13_205
*1104 FILLER_13_215
*1105 FILLER_13_222
*1106 FILLER_13_225
*1107 FILLER_13_237
*1108 FILLER_13_249
*1109 FILLER_13_261
*1110 FILLER_13_27
*1111 FILLER_13_273
*1112 FILLER_13_279
*1113 FILLER_13_281
*1114 FILLER_13_293
*1115 FILLER_13_3
*1116 FILLER_13_305
*1117 FILLER_13_317
*1118 FILLER_13_329
*1119 FILLER_13_335
*1120 FILLER_13_337
*1121 FILLER_13_349
*1122 FILLER_13_361
*1123 FILLER_13_373
*1124 FILLER_13_385
*1125 FILLER_13_39
*1126 FILLER_13_391
*1127 FILLER_13_393
*1128 FILLER_13_405
*1129 FILLER_13_51
*1130 FILLER_13_55
*1131 FILLER_13_57
*1132 FILLER_13_69
*1133 FILLER_13_81
*1134 FILLER_13_93
*1135 FILLER_14_109
*1136 FILLER_14_121
*1137 FILLER_14_125
*1138 FILLER_14_128
*1139 FILLER_14_135
*1140 FILLER_14_139
*1141 FILLER_14_141
*1142 FILLER_14_15
*1143 FILLER_14_153
*1144 FILLER_14_165
*1145 FILLER_14_177
*1146 FILLER_14_189
*1147 FILLER_14_195
*1148 FILLER_14_197
*1149 FILLER_14_209
*1150 FILLER_14_221
*1151 FILLER_14_233
*1152 FILLER_14_245
*1153 FILLER_14_251
*1154 FILLER_14_253
*1155 FILLER_14_265
*1156 FILLER_14_27
*1157 FILLER_14_277
*1158 FILLER_14_289
*1159 FILLER_14_29
*1160 FILLER_14_3
*1161 FILLER_14_301
*1162 FILLER_14_307
*1163 FILLER_14_309
*1164 FILLER_14_321
*1165 FILLER_14_333
*1166 FILLER_14_345
*1167 FILLER_14_357
*1168 FILLER_14_363
*1169 FILLER_14_365
*1170 FILLER_14_377
*1171 FILLER_14_389
*1172 FILLER_14_401
*1173 FILLER_14_41
*1174 FILLER_14_53
*1175 FILLER_14_65
*1176 FILLER_14_77
*1177 FILLER_14_83
*1178 FILLER_14_85
*1179 FILLER_14_93
*1180 FILLER_14_97
*1181 FILLER_15_105
*1182 FILLER_15_111
*1183 FILLER_15_113
*1184 FILLER_15_125
*1185 FILLER_15_129
*1186 FILLER_15_133
*1187 FILLER_15_139
*1188 FILLER_15_15
*1189 FILLER_15_151
*1190 FILLER_15_163
*1191 FILLER_15_167
*1192 FILLER_15_169
*1193 FILLER_15_181
*1194 FILLER_15_193
*1195 FILLER_15_205
*1196 FILLER_15_217
*1197 FILLER_15_223
*1198 FILLER_15_225
*1199 FILLER_15_237
*1200 FILLER_15_249
*1201 FILLER_15_261
*1202 FILLER_15_27
*1203 FILLER_15_273
*1204 FILLER_15_279
*1205 FILLER_15_281
*1206 FILLER_15_293
*1207 FILLER_15_3
*1208 FILLER_15_305
*1209 FILLER_15_317
*1210 FILLER_15_329
*1211 FILLER_15_335
*1212 FILLER_15_337
*1213 FILLER_15_349
*1214 FILLER_15_361
*1215 FILLER_15_373
*1216 FILLER_15_385
*1217 FILLER_15_39
*1218 FILLER_15_391
*1219 FILLER_15_393
*1220 FILLER_15_405
*1221 FILLER_15_51
*1222 FILLER_15_55
*1223 FILLER_15_57
*1224 FILLER_15_69
*1225 FILLER_15_81
*1226 FILLER_15_9
*1227 FILLER_15_93
*1228 FILLER_16_109
*1229 FILLER_16_121
*1230 FILLER_16_133
*1231 FILLER_16_139
*1232 FILLER_16_141
*1233 FILLER_16_15
*1234 FILLER_16_153
*1235 FILLER_16_165
*1236 FILLER_16_177
*1237 FILLER_16_189
*1238 FILLER_16_195
*1239 FILLER_16_197
*1240 FILLER_16_209
*1241 FILLER_16_221
*1242 FILLER_16_233
*1243 FILLER_16_245
*1244 FILLER_16_251
*1245 FILLER_16_253
*1246 FILLER_16_265
*1247 FILLER_16_27
*1248 FILLER_16_277
*1249 FILLER_16_289
*1250 FILLER_16_29
*1251 FILLER_16_3
*1252 FILLER_16_301
*1253 FILLER_16_307
*1254 FILLER_16_309
*1255 FILLER_16_321
*1256 FILLER_16_333
*1257 FILLER_16_345
*1258 FILLER_16_357
*1259 FILLER_16_363
*1260 FILLER_16_365
*1261 FILLER_16_377
*1262 FILLER_16_389
*1263 FILLER_16_397
*1264 FILLER_16_405
*1265 FILLER_16_41
*1266 FILLER_16_53
*1267 FILLER_16_65
*1268 FILLER_16_77
*1269 FILLER_16_83
*1270 FILLER_16_85
*1271 FILLER_16_97
*1272 FILLER_17_105
*1273 FILLER_17_111
*1274 FILLER_17_113
*1275 FILLER_17_125
*1276 FILLER_17_137
*1277 FILLER_17_149
*1278 FILLER_17_15
*1279 FILLER_17_161
*1280 FILLER_17_167
*1281 FILLER_17_169
*1282 FILLER_17_181
*1283 FILLER_17_193
*1284 FILLER_17_205
*1285 FILLER_17_217
*1286 FILLER_17_223
*1287 FILLER_17_225
*1288 FILLER_17_237
*1289 FILLER_17_249
*1290 FILLER_17_255
*1291 FILLER_17_261
*1292 FILLER_17_27
*1293 FILLER_17_273
*1294 FILLER_17_279
*1295 FILLER_17_281
*1296 FILLER_17_293
*1297 FILLER_17_3
*1298 FILLER_17_305
*1299 FILLER_17_317
*1300 FILLER_17_329
*1301 FILLER_17_335
*1302 FILLER_17_337
*1303 FILLER_17_349
*1304 FILLER_17_361
*1305 FILLER_17_373
*1306 FILLER_17_385
*1307 FILLER_17_39
*1308 FILLER_17_391
*1309 FILLER_17_393
*1310 FILLER_17_405
*1311 FILLER_17_51
*1312 FILLER_17_55
*1313 FILLER_17_57
*1314 FILLER_17_69
*1315 FILLER_17_81
*1316 FILLER_17_93
*1317 FILLER_18_109
*1318 FILLER_18_121
*1319 FILLER_18_133
*1320 FILLER_18_139
*1321 FILLER_18_141
*1322 FILLER_18_15
*1323 FILLER_18_153
*1324 FILLER_18_159
*1325 FILLER_18_165
*1326 FILLER_18_177
*1327 FILLER_18_189
*1328 FILLER_18_195
*1329 FILLER_18_197
*1330 FILLER_18_209
*1331 FILLER_18_221
*1332 FILLER_18_233
*1333 FILLER_18_245
*1334 FILLER_18_251
*1335 FILLER_18_253
*1336 FILLER_18_265
*1337 FILLER_18_27
*1338 FILLER_18_277
*1339 FILLER_18_289
*1340 FILLER_18_29
*1341 FILLER_18_3
*1342 FILLER_18_301
*1343 FILLER_18_307
*1344 FILLER_18_309
*1345 FILLER_18_321
*1346 FILLER_18_333
*1347 FILLER_18_345
*1348 FILLER_18_357
*1349 FILLER_18_363
*1350 FILLER_18_365
*1351 FILLER_18_377
*1352 FILLER_18_389
*1353 FILLER_18_397
*1354 FILLER_18_402
*1355 FILLER_18_406
*1356 FILLER_18_41
*1357 FILLER_18_53
*1358 FILLER_18_65
*1359 FILLER_18_77
*1360 FILLER_18_83
*1361 FILLER_18_85
*1362 FILLER_18_97
*1363 FILLER_19_105
*1364 FILLER_19_111
*1365 FILLER_19_113
*1366 FILLER_19_125
*1367 FILLER_19_137
*1368 FILLER_19_149
*1369 FILLER_19_161
*1370 FILLER_19_166
*1371 FILLER_19_169
*1372 FILLER_19_173
*1373 FILLER_19_185
*1374 FILLER_19_197
*1375 FILLER_19_209
*1376 FILLER_19_21
*1377 FILLER_19_221
*1378 FILLER_19_225
*1379 FILLER_19_237
*1380 FILLER_19_249
*1381 FILLER_19_261
*1382 FILLER_19_273
*1383 FILLER_19_279
*1384 FILLER_19_281
*1385 FILLER_19_293
*1386 FILLER_19_3
*1387 FILLER_19_305
*1388 FILLER_19_317
*1389 FILLER_19_329
*1390 FILLER_19_33
*1391 FILLER_19_335
*1392 FILLER_19_337
*1393 FILLER_19_349
*1394 FILLER_19_361
*1395 FILLER_19_373
*1396 FILLER_19_385
*1397 FILLER_19_391
*1398 FILLER_19_393
*1399 FILLER_19_397
*1400 FILLER_19_405
*1401 FILLER_19_45
*1402 FILLER_19_53
*1403 FILLER_19_57
*1404 FILLER_19_69
*1405 FILLER_19_81
*1406 FILLER_19_9
*1407 FILLER_19_93
*1408 FILLER_1_106
*1409 FILLER_1_113
*1410 FILLER_1_125
*1411 FILLER_1_137