*SPEF "ieee 1481-1999"
*DESIGN "cby_1__1_"
*DATE "11:11:11 Fri 11 11, 1111"
*VENDOR "OpenRCX"
*PROGRAM "Parallel Extraction"
*VERSION "1.0"
*DESIGN_FLOW "NAME_SCOPE LOCAL" "PIN_CAP NONE"
*DIVIDER /
*DELIMITER :
*BUS_DELIMITER []
*T_UNIT 1 NS
*C_UNIT 1 PF
*R_UNIT 1 OHM
*L_UNIT 1 HENRY

*NAME_MAP
*1 ccff_head
*2 ccff_tail
*3 chany_bottom_in[0]
*4 chany_bottom_in[10]
*5 chany_bottom_in[11]
*6 chany_bottom_in[12]
*7 chany_bottom_in[13]
*8 chany_bottom_in[14]
*9 chany_bottom_in[15]
*10 chany_bottom_in[16]
*11 chany_bottom_in[17]
*12 chany_bottom_in[18]
*13 chany_bottom_in[1]
*14 chany_bottom_in[2]
*15 chany_bottom_in[3]
*16 chany_bottom_in[4]
*17 chany_bottom_in[5]
*18 chany_bottom_in[6]
*19 chany_bottom_in[7]
*20 chany_bottom_in[8]
*21 chany_bottom_in[9]
*22 chany_bottom_out[0]
*23 chany_bottom_out[10]
*24 chany_bottom_out[11]
*25 chany_bottom_out[12]
*26 chany_bottom_out[13]
*27 chany_bottom_out[14]
*28 chany_bottom_out[15]
*29 chany_bottom_out[16]
*30 chany_bottom_out[17]
*31 chany_bottom_out[18]
*32 chany_bottom_out[1]
*33 chany_bottom_out[2]
*34 chany_bottom_out[3]
*35 chany_bottom_out[4]
*36 chany_bottom_out[5]
*37 chany_bottom_out[6]
*38 chany_bottom_out[7]
*39 chany_bottom_out[8]
*40 chany_bottom_out[9]
*41 chany_top_in[0]
*42 chany_top_in[10]
*43 chany_top_in[11]
*44 chany_top_in[12]
*45 chany_top_in[13]
*46 chany_top_in[14]
*47 chany_top_in[15]
*48 chany_top_in[16]
*49 chany_top_in[17]
*50 chany_top_in[18]
*51 chany_top_in[1]
*52 chany_top_in[2]
*53 chany_top_in[3]
*54 chany_top_in[4]
*55 chany_top_in[5]
*56 chany_top_in[6]
*57 chany_top_in[7]
*58 chany_top_in[8]
*59 chany_top_in[9]
*60 chany_top_out[0]
*61 chany_top_out[10]
*62 chany_top_out[11]
*63 chany_top_out[12]
*64 chany_top_out[13]
*65 chany_top_out[14]
*66 chany_top_out[15]
*67 chany_top_out[16]
*68 chany_top_out[17]
*69 chany_top_out[18]
*70 chany_top_out[1]
*71 chany_top_out[2]
*72 chany_top_out[3]
*73 chany_top_out[4]
*74 chany_top_out[5]
*75 chany_top_out[6]
*76 chany_top_out[7]
*77 chany_top_out[8]
*78 chany_top_out[9]
*79 left_grid_right_width_0_height_0_subtile_0__pin_I_1_
*80 left_grid_right_width_0_height_0_subtile_0__pin_I_5_
*81 left_grid_right_width_0_height_0_subtile_0__pin_I_9_
*82 pReset
*83 prog_clk
*84 right_grid_left_width_0_height_0_subtile_0__pin_I_11_
*85 right_grid_left_width_0_height_0_subtile_0__pin_I_3_
*86 right_grid_left_width_0_height_0_subtile_0__pin_I_7_
*89 _000_
*90 _001_
*91 _002_
*92 _003_
*93 _004_
*94 _005_
*95 _006_
*96 _007_
*97 _008_
*98 _009_
*99 _010_
*100 _011_
*101 _012_
*102 _013_
*103 _014_
*104 _015_
*105 _016_
*106 _017_
*107 _018_
*108 _019_
*109 _020_
*110 _021_
*111 _022_
*112 _023_
*113 _024_
*114 _025_
*115 _026_
*116 _027_
*117 _028_
*118 _029_
*119 _030_
*120 _031_
*121 _032_
*122 _033_
*123 _034_
*124 _035_
*125 _036_
*126 _037_
*127 _038_
*128 _039_
*129 _040_
*130 _041_
*131 _042_
*132 _043_
*133 _044_
*134 _045_
*135 _046_
*136 _047_
*137 _048_
*138 _049_
*139 _050_
*140 _051_
*141 _052_
*142 _053_
*143 _054_
*144 _055_
*145 _056_
*146 _057_
*147 _058_
*148 _059_
*149 _060_
*150 _061_
*151 _062_
*152 _063_
*153 _064_
*154 _065_
*155 _066_
*156 _067_
*157 _068_
*158 _069_
*159 _070_
*160 _071_
*161 _072_
*162 _073_
*163 _074_
*164 _075_
*165 _076_
*166 _077_
*167 _078_
*168 _079_
*169 _080_
*170 _081_
*171 _082_
*172 _083_
*173 _084_
*174 _085_
*175 _086_
*176 _087_
*177 _088_
*178 _089_
*179 _090_
*180 _091_
*181 _092_
*182 _093_
*183 _094_
*184 _095_
*185 _096_
*186 _097_
*187 _098_
*188 _099_
*189 _100_
*190 _101_
*191 _102_
*192 _103_
*193 _104_
*194 _105_
*195 _106_
*196 _107_
*197 _108_
*198 mem_left_ipin_0\.DFFR_0_\.Q
*199 mem_left_ipin_0\.DFFR_1_\.Q
*200 mem_left_ipin_0\.DFFR_2_\.Q
*201 mem_left_ipin_0\.DFFR_3_\.Q
*202 mem_left_ipin_0\.DFFR_4_\.Q
*203 mem_left_ipin_0\.DFFR_5_\.Q
*204 mem_left_ipin_1\.DFFR_0_\.Q
*205 mem_left_ipin_1\.DFFR_1_\.Q
*206 mem_left_ipin_1\.DFFR_2_\.Q
*207 mem_left_ipin_1\.DFFR_3_\.Q
*208 mem_left_ipin_1\.DFFR_4_\.Q
*209 mem_left_ipin_1\.DFFR_5_\.Q
*210 mem_left_ipin_2\.DFFR_0_\.Q
*211 mem_left_ipin_2\.DFFR_1_\.Q
*212 mem_left_ipin_2\.DFFR_2_\.Q
*213 mem_left_ipin_2\.DFFR_3_\.Q
*214 mem_left_ipin_2\.DFFR_4_\.Q
*215 mem_left_ipin_2\.DFFR_5_\.Q
*216 mem_right_ipin_0\.DFFR_0_\.Q
*217 mem_right_ipin_0\.DFFR_1_\.Q
*218 mem_right_ipin_0\.DFFR_2_\.Q
*219 mem_right_ipin_0\.DFFR_3_\.Q
*220 mem_right_ipin_0\.DFFR_4_\.Q
*221 mem_right_ipin_0\.DFFR_5_\.Q
*222 mem_right_ipin_1\.DFFR_0_\.Q
*223 mem_right_ipin_1\.DFFR_1_\.Q
*224 mem_right_ipin_1\.DFFR_2_\.Q
*225 mem_right_ipin_1\.DFFR_3_\.Q
*226 mem_right_ipin_1\.DFFR_4_\.Q
*227 mem_right_ipin_1\.DFFR_5_\.Q
*228 mem_right_ipin_2\.DFFR_0_\.Q
*229 mem_right_ipin_2\.DFFR_1_\.Q
*230 mem_right_ipin_2\.DFFR_2_\.Q
*231 mem_right_ipin_2\.DFFR_3_\.Q
*232 mem_right_ipin_2\.DFFR_4_\.Q
*233 mux_left_ipin_0\.INVTX1_0_\.out
*234 mux_left_ipin_0\.INVTX1_1_\.out
*235 mux_left_ipin_0\.INVTX1_2_\.out
*236 mux_left_ipin_0\.INVTX1_3_\.out
*237 mux_left_ipin_0\.INVTX1_4_\.out
*238 mux_left_ipin_0\.INVTX1_5_\.out
*239 mux_left_ipin_0\.INVTX1_6_\.out
*240 mux_left_ipin_0\.INVTX1_7_\.out
*241 mux_left_ipin_0\.mux_2level_tapbuf_basis_input3_mem3_0_out
*242 mux_left_ipin_0\.mux_2level_tapbuf_basis_input3_mem3_1_out
*243 mux_left_ipin_0\.mux_2level_tapbuf_basis_input3_mem3_2_out
*244 mux_left_ipin_0\.mux_2level_tapbuf_basis_input3_mem3_3_out
*245 mux_left_ipin_1\.INVTX1_2_\.out
*246 mux_left_ipin_1\.INVTX1_3_\.out
*247 mux_left_ipin_1\.INVTX1_4_\.out
*248 mux_left_ipin_1\.INVTX1_5_\.out
*249 mux_left_ipin_1\.INVTX1_6_\.out
*250 mux_left_ipin_1\.INVTX1_7_\.out
*251 mux_left_ipin_1\.mux_2level_tapbuf_basis_input3_mem3_0_out
*252 mux_left_ipin_1\.mux_2level_tapbuf_basis_input3_mem3_1_out
*253 mux_left_ipin_1\.mux_2level_tapbuf_basis_input3_mem3_2_out
*254 mux_left_ipin_1\.mux_2level_tapbuf_basis_input3_mem3_3_out
*255 mux_left_ipin_2\.INVTX1_2_\.out
*256 mux_left_ipin_2\.INVTX1_3_\.out
*257 mux_left_ipin_2\.INVTX1_4_\.out
*258 mux_left_ipin_2\.INVTX1_5_\.out
*259 mux_left_ipin_2\.mux_2level_tapbuf_basis_input3_mem3_0_out
*260 mux_left_ipin_2\.mux_2level_tapbuf_basis_input3_mem3_1_out
*261 mux_left_ipin_2\.mux_2level_tapbuf_basis_input3_mem3_2_out
*262 mux_right_ipin_0\.INVTX1_2_\.out
*263 mux_right_ipin_0\.INVTX1_3_\.out
*264 mux_right_ipin_0\.INVTX1_4_\.out
*265 mux_right_ipin_0\.INVTX1_5_\.out
*266 mux_right_ipin_0\.INVTX1_6_\.out
*267 mux_right_ipin_0\.INVTX1_7_\.out
*268 mux_right_ipin_0\.mux_2level_tapbuf_basis_input3_mem3_0_out
*269 mux_right_ipin_0\.mux_2level_tapbuf_basis_input3_mem3_1_out
*270 mux_right_ipin_0\.mux_2level_tapbuf_basis_input3_mem3_2_out
*271 mux_right_ipin_0\.mux_2level_tapbuf_basis_input3_mem3_3_out
*272 mux_right_ipin_1\.INVTX1_2_\.out
*273 mux_right_ipin_1\.INVTX1_3_\.out
*274 mux_right_ipin_1\.INVTX1_4_\.out
*275 mux_right_ipin_1\.INVTX1_5_\.out
*276 mux_right_ipin_1\.INVTX1_6_\.out
*277 mux_right_ipin_1\.INVTX1_7_\.out
*278 mux_right_ipin_1\.mux_2level_tapbuf_basis_input3_mem3_0_out
*279 mux_right_ipin_1\.mux_2level_tapbuf_basis_input3_mem3_1_out
*280 mux_right_ipin_1\.mux_2level_tapbuf_basis_input3_mem3_2_out
*281 mux_right_ipin_1\.mux_2level_tapbuf_basis_input3_mem3_3_out
*282 mux_right_ipin_2\.INVTX1_2_\.out
*283 mux_right_ipin_2\.INVTX1_3_\.out
*284 mux_right_ipin_2\.INVTX1_6_\.out
*285 mux_right_ipin_2\.INVTX1_7_\.out
*286 mux_right_ipin_2\.mux_2level_tapbuf_basis_input3_mem3_0_out
*287 mux_right_ipin_2\.mux_2level_tapbuf_basis_input3_mem3_1_out
*288 mux_right_ipin_2\.mux_2level_tapbuf_basis_input3_mem3_2_out
*289 mux_right_ipin_2\.mux_2level_tapbuf_basis_input3_mem3_3_out
*290 net1
*291 net10
*292 net11
*293 net12
*294 net13
*295 net14
*296 net15
*297 net16
*298 net17
*299 net18
*300 net19
*301 net2
*302 net20
*303 net21
*304 net22
*305 net23
*306 net24
*307 net25
*308 net26
*309 net27
*310 net28
*311 net29
*312 net3
*313 net30
*314 net31
*315 net32
*316 net33
*317 net34
*318 net35
*319 net36
*320 net37
*321 net38
*322 net39
*323 net4
*324 net40
*325 net41
*326 net42
*327 net43
*328 net44
*329 net45
*330 net46
*331 net47
*332 net48
*333 net49
*334 net5
*335 net50
*336 net51
*337 net52
*338 net53
*339 net54
*340 net55
*341 net56
*342 net57
*343 net58
*344 net59
*345 net6
*346 net60
*347 net61
*348 net62
*349 net63
*350 net64
*351 net65
*352 net66
*353 net67
*354 net68
*355 net69
*356 net7
*357 net70
*358 net71
*359 net72
*360 net73
*361 net74
*362 net75
*363 net76
*364 net77
*365 net78
*366 net79
*367 net8
*368 net80
*369 net81
*370 net82
*371 net83
*372 net84
*373 net85
*374 net86
*375 net87
*376 net88
*377 net89
*378 net9
*379 net90
*380 net91
*381 ANTENNA__125__A
*382 ANTENNA__126__A
*383 ANTENNA__127__A
*384 ANTENNA__129__A
*385 ANTENNA__130__A
*386 ANTENNA__131__A
*387 ANTENNA__133__A
*388 ANTENNA__134__A
*389 ANTENNA__135__A
*390 ANTENNA__137__A
*391 ANTENNA__138__A
*392 ANTENNA__139__A
*393 ANTENNA__141__A
*394 ANTENNA__142__A
*395 ANTENNA__143__A
*396 ANTENNA__145__A
*397 ANTENNA__146__A
*398 ANTENNA__147__A
*399 ANTENNA__149__A
*400 ANTENNA__150__A
*401 ANTENNA__151__A
*402 ANTENNA__153__A
*403 ANTENNA__154__A
*404 ANTENNA__155__A
*405 ANTENNA__157__A
*406 ANTENNA__158__A
*407 ANTENNA__159__A
*408 ANTENNA__163__A
*409 ANTENNA__167__A
*410 ANTENNA__171__A
*411 ANTENNA__173__A
*412 ANTENNA__175__A
*413 ANTENNA__177__A
*414 ANTENNA__178__A
*415 ANTENNA__179__A
*416 ANTENNA__180__A
*417 ANTENNA__181__A
*418 ANTENNA__182__A
*419 ANTENNA__183__A
*420 ANTENNA__184__A
*421 ANTENNA__186__A
*422 ANTENNA__187__A
*423 ANTENNA__189__A
*424 ANTENNA__191__A
*425 ANTENNA__192__A
*426 ANTENNA__194__A
*427 ANTENNA__195__A
*428 ANTENNA__196__A
*429 ANTENNA__197__A
*430 ANTENNA__198__A
*431 ANTENNA__199__A
*432 ANTENNA__200__A
*433 ANTENNA__201__A
*434 ANTENNA__203__A
*435 ANTENNA__206__A
*436 ANTENNA__207__A
*437 ANTENNA__208__A
*438 ANTENNA__209__A
*439 ANTENNA__210__A
*440 ANTENNA__211__A
*441 ANTENNA__212__A
*442 ANTENNA__213__A
*443 ANTENNA__214__A
*444 ANTENNA__215__A
*445 ANTENNA__216__A
*446 ANTENNA__217__A
*447 ANTENNA__218__A
*448 ANTENNA__220__A
*449 ANTENNA__221__A
*450 ANTENNA__222__A
*451 ANTENNA__225__A
*452 ANTENNA__236__A
*453 ANTENNA__247__A
*454 ANTENNA__258__A
*455 ANTENNA__259__A
*456 ANTENNA__260__A
*457 ANTENNA__261__A
*458 ANTENNA__262__A
*459 ANTENNA__263__A
*460 ANTENNA__264__CLK
*461 ANTENNA__265__CLK
*462 ANTENNA__266__CLK
*463 ANTENNA__266__D
*464 ANTENNA__267__CLK
*465 ANTENNA__267__D
*466 ANTENNA__268__CLK
*467 ANTENNA__268__D
*468 ANTENNA__269__CLK
*469 ANTENNA__269__D
*470 ANTENNA__270__CLK
*471 ANTENNA__271__CLK
*472 ANTENNA__272__CLK
*473 ANTENNA__272__D
*474 ANTENNA__273__CLK
*475 ANTENNA__274__CLK
*476 ANTENNA__275__CLK
*477 ANTENNA__276__CLK
*478 ANTENNA__277__CLK
*479 ANTENNA__278__CLK
*480 ANTENNA__278__D
*481 ANTENNA__279__CLK
*482 ANTENNA__279__D
*483 ANTENNA__280__CLK
*484 ANTENNA__280__D
*485 ANTENNA__281__CLK
*486 ANTENNA__282__CLK
*487 ANTENNA__283__CLK
*488 ANTENNA__284__CLK
*489 ANTENNA__284__D
*490 ANTENNA__285__CLK
*491 ANTENNA__285__D
*492 ANTENNA__286__CLK
*493 ANTENNA__286__D
*494 ANTENNA__287__CLK
*495 ANTENNA__288__CLK
*496 ANTENNA__289__CLK
*497 ANTENNA__290__CLK
*498 ANTENNA__290__D
*499 ANTENNA__291__CLK
*500 ANTENNA__291__D
*501 ANTENNA__292__CLK
*502 ANTENNA__292__D
*503 ANTENNA__293__CLK
*504 ANTENNA__294__CLK
*505 ANTENNA__295__CLK
*506 ANTENNA__296__CLK
*507 ANTENNA__297__CLK
*508 ANTENNA__298__CLK
*509 ANTENNA__299__CLK
*510 ANTENNA__306__A
*511 ANTENNA__307__A
*512 ANTENNA__308__A
*513 ANTENNA__309__A
*514 ANTENNA__311__A
*515 ANTENNA__312__A
*516 ANTENNA__314__A
*517 ANTENNA__317__A
*518 ANTENNA__318__A
*519 ANTENNA__319__A
*520 ANTENNA__320__A
*521 ANTENNA__322__A
*522 ANTENNA__323__A
*523 ANTENNA__324__A
*524 ANTENNA__326__A
*525 ANTENNA__327__A
*526 ANTENNA__328__A
*527 ANTENNA__330__A
*528 ANTENNA__331__A
*529 ANTENNA__332__A
*530 ANTENNA__333__A
*531 ANTENNA__334__A
*532 ANTENNA__336__A
*533 ANTENNA__338__A
*534 ANTENNA__339__A
*535 ANTENNA__341__A
*536 ANTENNA__342__A
*537 ANTENNA__374__A
*538 ANTENNA__379__A
*539 ANTENNA__409__A
*540 ANTENNA__411__A
*541 ANTENNA_input10_A
*542 ANTENNA_input11_A
*543 ANTENNA_input12_A
*544 ANTENNA_input13_A
*545 ANTENNA_input14_A
*546 ANTENNA_input15_A
*547 ANTENNA_input16_A
*548 ANTENNA_input17_A
*549 ANTENNA_input18_A
*550 ANTENNA_input19_A
*551 ANTENNA_input1_A
*552 ANTENNA_input20_A
*553 ANTENNA_input21_A
*554 ANTENNA_input22_A
*555 ANTENNA_input23_A
*556 ANTENNA_input24_A
*557 ANTENNA_input25_A
*558 ANTENNA_input26_A
*559 ANTENNA_input27_A
*560 ANTENNA_input28_A
*561 ANTENNA_input29_A
*562 ANTENNA_input2_A
*563 ANTENNA_input30_A
*564 ANTENNA_input31_A
*565 ANTENNA_input32_A
*566 ANTENNA_input33_A
*567 ANTENNA_input34_A
*568 ANTENNA_input35_A
*569 ANTENNA_input36_A
*570 ANTENNA_input37_A
*571 ANTENNA_input38_A
*572 ANTENNA_input39_A
*573 ANTENNA_input3_A
*574 ANTENNA_input40_A
*575 ANTENNA_input4_A
*576 ANTENNA_input5_A
*577 ANTENNA_input6_A
*578 ANTENNA_input7_A
*579 ANTENNA_input8_A
*580 ANTENNA_input9_A
*581 ANTENNA_output43_A
*582 ANTENNA_output47_A
*583 ANTENNA_output49_A
*584 ANTENNA_output58_A
*585 ANTENNA_output62_A
*586 ANTENNA_output64_A
*587 ANTENNA_output68_A
*588 ANTENNA_output69_A
*589 ANTENNA_output70_A
*590 ANTENNA_output71_A
*591 ANTENNA_output74_A
*592 ANTENNA_output75_A
*593 FILLER_0_104
*594 FILLER_0_110
*595 FILLER_0_113
*596 FILLER_0_121
*597 FILLER_0_126
*598 FILLER_0_132
*599 FILLER_0_141
*600 FILLER_0_153
*601 FILLER_0_166
*602 FILLER_0_169
*603 FILLER_0_17
*604 FILLER_0_173
*605 FILLER_0_177
*606 FILLER_0_182
*607 FILLER_0_194
*608 FILLER_0_197
*609 FILLER_0_203
*610 FILLER_0_215
*611 FILLER_0_223
*612 FILLER_0_225
*613 FILLER_0_23
*614 FILLER_0_231
*615 FILLER_0_239
*616 FILLER_0_247
*617 FILLER_0_250
*618 FILLER_0_253
*619 FILLER_0_26
*620 FILLER_0_265
*621 FILLER_0_277
*622 FILLER_0_281
*623 FILLER_0_287
*624 FILLER_0_29
*625 FILLER_0_293
*626 FILLER_0_3
*627 FILLER_0_301
*628 FILLER_0_307
*629 FILLER_0_309
*630 FILLER_0_315
*631 FILLER_0_327
*632 FILLER_0_331
*633 FILLER_0_334
*634 FILLER_0_337
*635 FILLER_0_343
*636 FILLER_0_349
*637 FILLER_0_357
*638 FILLER_0_363
*639 FILLER_0_365
*640 FILLER_0_373
*641 FILLER_0_378
*642 FILLER_0_386
*643 FILLER_0_390
*644 FILLER_0_393
*645 FILLER_0_397
*646 FILLER_0_405
*647 FILLER_0_41
*648 FILLER_0_49
*649 FILLER_0_55
*650 FILLER_0_57
*651 FILLER_0_65
*652 FILLER_0_70
*653 FILLER_0_78
*654 FILLER_0_82
*655 FILLER_0_85
*656 FILLER_0_9
*657 FILLER_0_97
*658 FILLER_10_109
*659 FILLER_10_121
*660 FILLER_10_133
*661 FILLER_10_139
*662 FILLER_10_141
*663 FILLER_10_15
*664 FILLER_10_153
*665 FILLER_10_165
*666 FILLER_10_177
*667 FILLER_10_189
*668 FILLER_10_195
*669 FILLER_10_197
*670 FILLER_10_209
*671 FILLER_10_221
*672 FILLER_10_233
*673 FILLER_10_241
*674 FILLER_10_249
*675 FILLER_10_253
*676 FILLER_10_265
*677 FILLER_10_27
*678 FILLER_10_277
*679 FILLER_10_289
*680 FILLER_10_29
*681 FILLER_10_3
*682 FILLER_10_301
*683 FILLER_10_307
*684 FILLER_10_309
*685 FILLER_10_321
*686 FILLER_10_333
*687 FILLER_10_345
*688 FILLER_10_357
*689 FILLER_10_363
*690 FILLER_10_365
*691 FILLER_10_377
*692 FILLER_10_389
*693 FILLER_10_401
*694 FILLER_10_41
*695 FILLER_10_53
*696 FILLER_10_65
*697 FILLER_10_77
*698 FILLER_10_83
*699 FILLER_10_85
*700 FILLER_10_97
*701 FILLER_11_105
*702 FILLER_11_111
*703 FILLER_11_113
*704 FILLER_11_125
*705 FILLER_11_137
*706 FILLER_11_149
*707 FILLER_11_15
*708 FILLER_11_161
*709 FILLER_11_167
*710 FILLER_11_169
*711 FILLER_11_181
*712 FILLER_11_193
*713 FILLER_11_205
*714 FILLER_11_217
*715 FILLER_11_223
*716 FILLER_11_225
*717 FILLER_11_237
*718 FILLER_11_249
*719 FILLER_11_261
*720 FILLER_11_27
*721 FILLER_11_273
*722 FILLER_11_279
*723 FILLER_11_281
*724 FILLER_11_293
*725 FILLER_11_3
*726 FILLER_11_305
*727 FILLER_11_317
*728 FILLER_11_329
*729 FILLER_11_335
*730 FILLER_11_337
*731 FILLER_11_349
*732 FILLER_11_361
*733 FILLER_11_373
*734 FILLER_11_385
*735 FILLER_11_39
*736 FILLER_11_391
*737 FILLER_11_393
*738 FILLER_11_398
*739 FILLER_11_405
*740 FILLER_11_51
*741 FILLER_11_55
*742 FILLER_11_57
*743 FILLER_11_69
*744 FILLER_11_81
*745 FILLER_11_93
*746 FILLER_12_109
*747 FILLER_12_121
*748 FILLER_12_133
*749 FILLER_12_139
*750 FILLER_12_141
*751 FILLER_12_153
*752 FILLER_12_165
*753 FILLER_12_177
*754 FILLER_12_189
*755 FILLER_12_195
*756 FILLER_12_197
*757 FILLER_12_209
*758 FILLER_12_21
*759 FILLER_12_221
*760 FILLER_12_233
*761 FILLER_12_245
*762 FILLER_12_251
*763 FILLER_12_253
*764 FILLER_12_258
*765 FILLER_12_264
*766 FILLER_12_27
*767 FILLER_12_276
*768 FILLER_12_288
*769 FILLER_12_29
*770 FILLER_12_3
*771 FILLER_12_300
*772 FILLER_12_309
*773 FILLER_12_321
*774 FILLER_12_333
*775 FILLER_12_345
*776 FILLER_12_357
*777 FILLER_12_363
*778 FILLER_12_365
*779 FILLER_12_377
*780 FILLER_12_389
*781 FILLER_12_401
*782 FILLER_12_41
*783 FILLER_12_53
*784 FILLER_12_65
*785 FILLER_12_77
*786 FILLER_12_83
*787 FILLER_12_85
*788 FILLER_12_9
*789 FILLER_12_97
*790 FILLER_13_105
*791 FILLER_13_111
*792 FILLER_13_113
*793 FILLER_13_125
*794 FILLER_13_137
*795 FILLER_13_149
*796 FILLER_13_15
*797 FILLER_13_161
*798 FILLER_13_167
*799 FILLER_13_169
*800 FILLER_13_174
*801 FILLER_13_180
*802 FILLER_13_192
*803 FILLER_13_204
*804 FILLER_13_216
*805 FILLER_13_225
*806 FILLER_13_237
*807 FILLER_13_249
*808 FILLER_13_261
*809 FILLER_13_27
*810 FILLER_13_273
*811 FILLER_13_279
*812 FILLER_13_281
*813 FILLER_13_293
*814 FILLER_13_3
*815 FILLER_13_305
*816 FILLER_13_317
*817 FILLER_13_329
*818 FILLER_13_335
*819 FILLER_13_337
*820 FILLER_13_349
*821 FILLER_13_361
*822 FILLER_13_373
*823 FILLER_13_385
*824 FILLER_13_39
*825 FILLER_13_391
*826 FILLER_13_393
*827 FILLER_13_405
*828 FILLER_13_51
*829 FILLER_13_55
*830 FILLER_13_57
*831 FILLER_13_69
*832 FILLER_13_81
*833 FILLER_13_93
*834 FILLER_14_109
*835 FILLER_14_121
*836 FILLER_14_133
*837 FILLER_14_139
*838 FILLER_14_141
*839 FILLER_14_147
*840 FILLER_14_15
*841 FILLER_14_153
*842 FILLER_14_165
*843 FILLER_14_179
*844 FILLER_14_191
*845 FILLER_14_195
*846 FILLER_14_197
*847 FILLER_14_209
*848 FILLER_14_221
*849 FILLER_14_233
*850 FILLER_14_245
*851 FILLER_14_251
*852 FILLER_14_253
*853 FILLER_14_265
*854 FILLER_14_27
*855 FILLER_14_277
*856 FILLER_14_289
*857 FILLER_14_29
*858 FILLER_14_3
*859 FILLER_14_301
*860 FILLER_14_307
*861 FILLER_14_309
*862 FILLER_14_321
*863 FILLER_14_333
*864 FILLER_14_345
*865 FILLER_14_357
*866 FILLER_14_363
*867 FILLER_14_365
*868 FILLER_14_377
*869 FILLER_14_389
*870 FILLER_14_401
*871 FILLER_14_41
*872 FILLER_14_53
*873 FILLER_14_65
*874 FILLER_14_77
*875 FILLER_14_83
*876 FILLER_14_85
*877 FILLER_14_97
*878 FILLER_15_105
*879 FILLER_15_111
*880 FILLER_15_113
*881 FILLER_15_125
*882 FILLER_15_137
*883 FILLER_15_149
*884 FILLER_15_15
*885 FILLER_15_153
*886 FILLER_15_159
*887 FILLER_15_167
*888 FILLER_15_169
*889 FILLER_15_173
*890 FILLER_15_177
*891 FILLER_15_188
*892 FILLER_15_194
*893 FILLER_15_206
*894 FILLER_15_218
*895 FILLER_15_225
*896 FILLER_15_237
*897 FILLER_15_249
*898 FILLER_15_261
*899 FILLER_15_27
*900 FILLER_15_273
*901 FILLER_15_279
*902 FILLER_15_281
*903 FILLER_15_293
*904 FILLER_15_3
*905 FILLER_15_305
*906 FILLER_15_317
*907 FILLER_15_329
*908 FILLER_15_335
*909 FILLER_15_337
*910 FILLER_15_349
*911 FILLER_15_361
*912 FILLER_15_373
*913 FILLER_15_385
*914 FILLER_15_39
*915 FILLER_15_391
*916 FILLER_15_393
*917 FILLER_15_397
*918 FILLER_15_405
*919 FILLER_15_51
*920 FILLER_15_55
*921 FILLER_15_57
*922 FILLER_15_69
*923 FILLER_15_81
*924 FILLER_15_93
*925 FILLER_16_109
*926 FILLER_16_121
*927 FILLER_16_133
*928 FILLER_16_139
*929 FILLER_16_141
*930 FILLER_16_15
*931 FILLER_16_153
*932 FILLER_16_165
*933 FILLER_16_169
*934 FILLER_16_175
*935 FILLER_16_187
*936 FILLER_16_195
*937 FILLER_16_197
*938 FILLER_16_209
*939 FILLER_16_221
*940 FILLER_16_233
*941 FILLER_16_245
*942 FILLER_16_251
*943 FILLER_16_253
*944 FILLER_16_265
*945 FILLER_16_27
*946 FILLER_16_277
*947 FILLER_16_289
*948 FILLER_16_29
*949 FILLER_16_3
*950 FILLER_16_301
*951 FILLER_16_307
*952 FILLER_16_309
*953 FILLER_16_321
*954 FILLER_16_333
*955 FILLER_16_345
*956 FILLER_16_357
*957 FILLER_16_363
*958 FILLER_16_365
*959 FILLER_16_377
*960 FILLER_16_389
*961 FILLER_16_401
*962 FILLER_16_41
*963 FILLER_16_53
*964 FILLER_16_65
*965 FILLER_16_77
*966 FILLER_16_83
*967 FILLER_16_85
*968 FILLER_16_9
*969 FILLER_16_97
*970 FILLER_17_105
*971 FILLER_17_111
*972 FILLER_17_113
*973 FILLER_17_125
*974 FILLER_17_137
*975 FILLER_17_149
*976 FILLER_17_15
*977 FILLER_17_161
*978 FILLER_17_167
*979 FILLER_17_169
*980 FILLER_17_181
*981 FILLER_17_193
*982 FILLER_17_205
*983 FILLER_17_217
*984 FILLER_17_223
*985 FILLER_17_225
*986 FILLER_17_237
*987 FILLER_17_249
*988 FILLER_17_261
*989 FILLER_17_27
*990 FILLER_17_273
*991 FILLER_17_279
*992 FILLER_17_281
*993 FILLER_17_293
*994 FILLER_17_3
*995 FILLER_17_305
*996 FILLER_17_317
*997 FILLER_17_329
*998 FILLER_17_335
*999 FILLER_17_337
*1000 FILLER_17_349
*1001 FILLER_17_361
*1002 FILLER_17_373
*1003 FILLER_17_385
*1004 FILLER_17_39
*1005 FILLER_17_391
*1006 FILLER_17_393
*1007 FILLER_17_397
*1008 FILLER_17_405
*1009 FILLER_17_51
*1010 FILLER_17_55
*1011 FILLER_17_57
*1012 FILLER_17_69
*1013 FILLER_17_81
*1014 FILLER_17_93
*1015 FILLER_18_109
*1016 FILLER_18_121
*1017 FILLER_18_133
*1018 FILLER_18_139
*1019 FILLER_18_141
*1020 FILLER_18_15
*1021 FILLER_18_153
*1022 FILLER_18_165
*1023 FILLER_18_177
*1024 FILLER_18_189
*1025 FILLER_18_195
*1026 FILLER_18_197
*1027 FILLER_18_209
*1028 FILLER_18_221
*1029 FILLER_18_233
*1030 FILLER_18_245
*1031 FILLER_18_251
*1032 FILLER_18_253
*1033 FILLER_18_265
*1034 FILLER_18_27
*1035 FILLER_18_277
*1036 FILLER_18_289
*1037 FILLER_18_29
*1038 FILLER_18_3
*1039 FILLER_18_301
*1040 FILLER_18_307
*1041 FILLER_18_309
*1042 FILLER_18_321
*1043 FILLER_18_333
*1044 FILLER_18_345
*1045 FILLER_18_357
*1046 FILLER_18_363
*1047 FILLER_18_365
*1048 FILLER_18_377
*1049 FILLER_18_389
*1050 FILLER_18_401
*1051 FILLER_18_41
*1052 FILLER_18_53
*1053 FILLER_18_65
*1054 FILLER_18_77
*1055 FILLER_18_83
*1056 FILLER_18_85
*1057 FILLER_18_97
*1058 FILLER_19_105
*1059 FILLER_19_111
*1060 FILLER_19_113
*1061 FILLER_19_125
*1062 FILLER_19_137
*1063 FILLER_19_149
*1064 FILLER_19_15
*1065 FILLER_19_161
*1066 FILLER_19_167
*1067 FILLER_19_169
*1068 FILLER_19_181
*1069 FILLER_19_193
*1070 FILLER_19_205
*1071 FILLER_19_217
*1072 FILLER_19_223
*1073 FILLER_19_225
*1074 FILLER_19_237
*1075 FILLER_19_249
*1076 FILLER_19_261
*1077 FILLER_19_27
*1078 FILLER_19_273
*1079 FILLER_19_279
*1080 FILLER_19_281
*1081 FILLER_19_293
*1082 FILLER_19_3
*1083 FILLER_19_305
*1084 FILLER_19_317
*1085 FILLER_19_329
*1086 FILLER_19_335
*1087 FILLER_19_337
*1088 FILLER_19_349
*1089 FILLER_19_361
*1090 FILLER_19_373
*1091 FILLER_19_385
*1092 FILLER_19_39
*1093 FILLER_19_391
*1094 FILLER_19_393
*1095 FILLER_19_405
*1096 FILLER_19_51
*1097 FILLER_19_55
*1098 FILLER_19_57
*1099 FILLER_19_69
*1100 FILLER_19_81
*1101 FILLER_19_93
*1102 FILLER_1_105
*1103 FILLER_1_111
*1104 FILLER_1_113
*1105 FILLER_1_125
*1106 FILLER_1_130
*1107 FILLER_1_136
*1108 FILLER_1_139
*1109 FILLER_1_153
*1110 FILLER_1_160
*1111 FILLER_1_166
*1112 FILLER_1_169
*1113 FILLER_1_180
*1114 FILLER_1_186
*1115 FILLER_1_19
*1116 FILLER_1_194
*1117 FILLER_1_199
*1118 FILLER_1_205
*1119 FILLER_1_217
*1120 FILLER_1_223
*1121 FILLER_1_225
*1122 FILLER_1_237
*1123 FILLER_1_243
*1124 FILLER_1_247
*1125 FILLER_1_255
*1126 FILLER_1_261
*1127 FILLER_1_267
*1128 FILLER_1_279
*1129 FILLER_1_281
*1130 FILLER_1_286
*1131 FILLER_1_292
*1132 FILLER_1_3
*1133 FILLER_1_304
*1134 FILLER_1_308
*1135 FILLER_1_31
*1136 FILLER_1_311
*1137 FILLER_1_323
*1138 FILLER_1_335
*1139 FILLER_1_337
*1140 FILLER_1_349
*1141 FILLER_1_361
*1142 FILLER_1_373
*1143 FILLER_1_385
*1144 FILLER_1_390
*1145 FILLER_1_393
*1146 FILLER_1_397
*1147 FILLER_1_405
*1148 FILLER_1_43
*1149 FILLER_1_51
*1150 FILLER_1_55
*1151 FILLER_1_57
*1152 FILLER_1_69
*1153 FILLER_1_81
*1154 FILLER_1_9
*1155 FILLER_1_93
*1156 FILLER_20_109
*1157 FILLER_20_121
*1158 FILLER_20_133
*1159 FILLER_20_139
*1160 FILLER_20_141
*1161 FILLER_20_153
*1162 FILLER_20_165
*1163 FILLER_20_177
*1164 FILLER_20_189
*1165 FILLER_20_195
*1166 FILLER_20_197
*1167 FILLER_20_209
*1168 FILLER_20_21
*1169 FILLER_20_221
*1170 FILLER_20_233
*1171 FILLER_20_245
*1172 FILLER_20_251
*1173 FILLER_20_253
*1174 FILLER_20_265
*1175 FILLER_20_27
*1176 FILLER_20_277
*1177 FILLER_20_289
*1178 FILLER_20_29
*1179 FILLER_20_3
*1180 FILLER_20_301
*1181 FILLER_20_307
*1182 FILLER_20_309
*1183 FILLER_20_321
*1184 FILLER_20_333
*1185 FILLER_20_345
*1186 FILLER_20_357
*1187 FILLER_20_363
*1188 FILLER_20_365
*1189 FILLER_20_377
*1190 FILLER_20_389
*1191 FILLER_20_401
*1192 FILLER_20_405
*1193 FILLER_20_41
*1194 FILLER_20_53
*1195 FILLER_20_65
*1196 FILLER_20_77
*1197 FILLER_20_83
*1198 FILLER_20_85
*1199 FILLER_20_9
*1200 FILLER_20_97
*1201 FILLER_21_105
*1202 FILLER_21_111
*1203 FILLER_21_113
*1204 FILLER_21_125
*1205 FILLER_21_137
*1206 FILLER_21_149
*1207 FILLER_21_161
*1208 FILLER_21_167
*1209 FILLER_21_169
*1210 FILLER_21_181
*1211 FILLER_21_19
*1212 FILLER_21_193
*1213 FILLER_21_205
*1214 FILLER_21_217
*1215 FILLER_21_223
*1216 FILLER_21_225
*1217 FILLER_21_237
*1218 FILLER_21_249
*1219 FILLER_21_261
*1220 FILLER_21_273
*1221 FILLER_21_279
*1222 FILLER_21_281
*1223 FILLER_21_293
*1224 FILLER_21_3
*1225 FILLER_21_305
*1226 FILLER_21_31
*1227 FILLER_21_317
*1228 FILLER_21_329
*1229 FILLER_21_335
*1230 FILLER_21_337
*1231 FILLER_21_349
*1232 FILLER_21_361
*1233 FILLER_21_373
*1234 FILLER_21_385
*1235 FILLER_21_391
*1236 FILLER_21_393
*1237 FILLER_21_405
*1238 FILLER_21_43
*1239 FILLER_21_55
*1240 FILLER_21_57
*1241 FILLER_21_69
*1242 FILLER_21_7
*1243 FILLER_21_81
*1244 FILLER_21_93
*1245 FILLER_22_109
*1246 FILLER_22_121
*1247 FILLER_22_133
*1248 FILLER_22_139
*1249 FILLER_22_141
*1250 FILLER_22_153
*1251 FILLER_22_165
*1252 FILLER_22_177
*1253 FILLER_22_189
*1254 FILLER_22_195
*1255 FILLER_22_197
*1256 FILLER_22_209
*1257 FILLER_22_21
*1258 FILLER_22_221
*1259 FILLER_22_233
*1260 FILLER_22_245
*1261 FILLER_22_251
*1262 FILLER_22_253
*1263 FILLER_22_265
*1264 FILLER_22_27
*1265 FILLER_22_277
*1266 FILLER_22_289
*1267 FILLER_22_29
*1268 FILLER_22_3
*1269 FILLER_22_301
*1270 FILLER_22_307
*1271 FILLER_22_309
*1272 FILLER_22_321
*1273 FILLER_22_333
*1274 FILLER_22_345
*1275 FILLER_22_357
*1276 FILLER_22_363
*1277 FILLER_22_365
*1278 FILLER_22_377
*1279 FILLER_22_389
*1280 FILLER_22_401
*1281 FILLER_22_41
*1282 FILLER_22_53
*1283 FILLER_22_65
*1284 FILLER_22_77
*1285 FILLER_22_83
*1286 FILLER_22_85
*1287 FILLER_22_9
*1288 FILLER_22_97
*1289 FILLER_23_105
*1290 FILLER_23_111
*1291 FILLER_23_113
*1292 FILLER_23_125
*1293 FILLER_23_137
*1294 FILLER_23_149
*1295 FILLER_23_15
*1296 FILLER_23_161
*1297 FILLER_23_167
*1298 FILLER_23_169
*1299 FILLER_23_181
*1300 FILLER_23_193
*1301 FILLER_23_205
*1302 FILLER_23_217
*1303 FILLER_23_223
*1304 FILLER_23_225
*1305 FILLER_23_237
*1306 FILLER_23_249
*1307 FILLER_23_261
*1308 FILLER_23_27
*1309 FILLER_23_273
*1310 FILLER_23_279
*1311 FILLER_23_281
*1312 FILLER_23_293
*1313 FILLER_23_3
*1314 FILLER_23_305
*1315 FILLER_23_317
*1316 FILLER_23_329
*1317 FILLER_23_335
*1318 FILLER_23_337
*1319 FILLER_23_349
*1320 FILLER_23_361
*1321 FILLER_23_373
*1322 FILLER_23_385
*1323 FILLER_23_39
*1324 FILLER_23_391
*1325 FILLER_23_393
*1326 FILLER_23_405
*1327 FILLER_23_51
*1328 FILLER_23_55
*1329 FILLER_23_57
*1330 FILLER_23_69
*1331 FILLER_23_81
*1332 FILLER_23_93
*1333 FILLER_24_104
*1334 FILLER_24_107
*1335 FILLER_24_119
*1336 FILLER_24_131
*1337 FILLER_24_139
*1338 FILLER_24_141
*1339 FILLER_24_15
*1340 FILLER_24_153
*1341 FILLER_24_161
*1342 FILLER_24_165
*1343 FILLER_24_171
*1344 FILLER_24_183
*1345 FILLER_24_195
*1346 FILLER_24_197
*1347 FILLER_24_209
*1348 FILLER_24_221
*1349 FILLER_24_233
*1350 FILLER_24_245
*1351 FILLER_24_251
*1352 FILLER_24_253
*1353 FILLER_24_265
*1354 FILLER_24_27
*1355 FILLER_24_277
*1356 FILLER_24_289
*1357 FILLER_24_29
*1358 FILLER_24_3
*1359 FILLER_24_301
*1360 FILLER_24_307
*1361 FILLER_24_309
*1362 FILLER_24_321
*1363 FILLER_24_333
*1364 FILLER_24_345
*1365 FILLER_24_357
*1366 FILLER_24_363
*1367 FILLER_24_365
*1368 FILLER_24_377
*1369 FILLER_24_389
*1370 FILLER_24_401
*1371 FILLER_24_41
*1372 FILLER_24_53
*1373 FILLER_24_65
*1374 FILLER_24_77
*1375 FILLER_24_83
*1376 FILLER_24_85
*1377 FILLER_24_93
*1378 FILLER_24_98
*1379 FILLER_25_100
*1380 FILLER_25_105
*1381 FILLER_25_111
*1382 FILLER_25_113
*1383 FILLER_25_117
*1384 FILLER_25_121
*1385 FILLER_25_127
*1386 FILLER_25_139
*1387 FILLER_25_15
*1388 FILLER_25_151
*1389 FILLER_25_163
*1390 FILLER_25_167
*1391 FILLER_25_169
*1392 FILLER_25_181
*1393 FILLER_25_193
*1394 FILLER_25_201
*1395 FILLER_25_206
*1396 FILLER_25_212
*1397 FILLER_25_225
*1398 FILLER_25_237
*1399 FILLER_25_249
*1400 FILLER_25_261
*1401 FILLER_25_27
*1402 FILLER_25_273
*1403 FILLER_25_279
*1404 FILLER_25_281
*1405 FILLER_25_293
*1406 FILLER_25_3
*1407 FILLER_25_305
*1408 FILLER_25_317
*1409 FILLER_25_329
*1410 FILLER_25_335
*1411 FILLER_25_337
*1412 FILLER_25_349
*1413 FILLER_25_361
*1414 FILLER_25_373
*1415 FILLER_25_385
*1416 FILLER_25_39
*1417 FILLER_25_391
*1418 FILLER_25_393
*1419 FILLER_25_397
*1420 FILLER_25_405
*1421 FILLER_25_51
*1422 FILLER_25_55
*1423 FILLER_25_57
*1424 FILLER_25_69
*1425 FILLER_25_81
*1426 FILLER_25_96
*1427 FILLER_26_109
*1428 FILLER_26_121
*1429 FILLER_26_133
*1430 FILLER_26_139
*1431 FILLER_26_141
*1432 FILLER_26_148
*1433 FILLER_26_154
*1434 FILLER_26_166
*1435 FILLER_26_178
*1436 FILLER_26_190
*1437 FILLER_26_197
*1438 FILLER_26_209
*1439 FILLER_26_21
*1440 FILLER_26_221
*1441 FILLER_26_233
*1442 FILLER_26_245
*1443 FILLER_26_251
*1444 FILLER_26_253
*1445 FILLER_26_265
*1446 FILLER_26_27
*1447 FILLER_26_277
*1448 FILLER_26_289
*1449 FILLER_26_29
*1450 FILLER_26_3
*1451 FILLER_26_301
*1452 FILLER_26_307
*1453 FILLER_26_309
*1454 FILLER_26_321
*1455 FILLER_26_333
*1456 FILLER_26_345
*1457 FILLER_26_357
*1458 FILLER_26_363
*1459 FILLER_26_365
*1460 FILLER_26_377
*1461 FILLER_26_389
*1462 FILLER_26_401
*1463 FILLER_26_41
*1464 FILLER_26_53
*1465 FILLER_26_65
*1466 FILLER_26_77
*1467 FILLER_26_83
*1468 FILLER_26_85
*1469 FILLER_26_9
*1470 FILLER_26_97
*1471 FILLER_27_105
*1472 FILLER_27_111
*1473 FILLER_27_113