*SPEF "ieee 1481-1999"
*DESIGN "cby_0__1_"
*DATE "11:11:11 Fri 11 11, 1111"
*VENDOR "OpenRCX"
*PROGRAM "Parallel Extraction"
*VERSION "1.0"
*DESIGN_FLOW "NAME_SCOPE LOCAL" "PIN_CAP NONE"
*DIVIDER /
*DELIMITER :
*BUS_DELIMITER []
*T_UNIT 1 NS
*C_UNIT 1 PF
*R_UNIT 1 OHM
*L_UNIT 1 HENRY

*NAME_MAP
*1 ccff_head
*2 ccff_tail
*3 chany_bottom_in[0]
*4 chany_bottom_in[10]
*5 chany_bottom_in[11]
*6 chany_bottom_in[12]
*7 chany_bottom_in[13]
*8 chany_bottom_in[14]
*9 chany_bottom_in[15]
*10 chany_bottom_in[16]
*11 chany_bottom_in[17]
*12 chany_bottom_in[18]
*13 chany_bottom_in[1]
*14 chany_bottom_in[2]
*15 chany_bottom_in[3]
*16 chany_bottom_in[4]
*17 chany_bottom_in[5]
*18 chany_bottom_in[6]
*19 chany_bottom_in[7]
*20 chany_bottom_in[8]
*21 chany_bottom_in[9]
*22 chany_bottom_out[0]
*23 chany_bottom_out[10]
*24 chany_bottom_out[11]
*25 chany_bottom_out[12]
*26 chany_bottom_out[13]
*27 chany_bottom_out[14]
*28 chany_bottom_out[15]
*29 chany_bottom_out[16]
*30 chany_bottom_out[17]
*31 chany_bottom_out[18]
*32 chany_bottom_out[1]
*33 chany_bottom_out[2]
*34 chany_bottom_out[3]
*35 chany_bottom_out[4]
*36 chany_bottom_out[5]
*37 chany_bottom_out[6]
*38 chany_bottom_out[7]
*39 chany_bottom_out[8]
*40 chany_bottom_out[9]
*41 chany_top_in[0]
*42 chany_top_in[10]
*43 chany_top_in[11]
*44 chany_top_in[12]
*45 chany_top_in[13]
*46 chany_top_in[14]
*47 chany_top_in[15]
*48 chany_top_in[16]
*49 chany_top_in[17]
*50 chany_top_in[18]
*51 chany_top_in[1]
*52 chany_top_in[2]
*53 chany_top_in[3]
*54 chany_top_in[4]
*55 chany_top_in[5]
*56 chany_top_in[6]
*57 chany_top_in[7]
*58 chany_top_in[8]
*59 chany_top_in[9]
*60 chany_top_out[0]
*61 chany_top_out[10]
*62 chany_top_out[11]
*63 chany_top_out[12]
*64 chany_top_out[13]
*65 chany_top_out[14]
*66 chany_top_out[15]
*67 chany_top_out[16]
*68 chany_top_out[17]
*69 chany_top_out[18]
*70 chany_top_out[1]
*71 chany_top_out[2]
*72 chany_top_out[3]
*73 chany_top_out[4]
*74 chany_top_out[5]
*75 chany_top_out[6]
*76 chany_top_out[7]
*77 chany_top_out[8]
*78 chany_top_out[9]
*79 left_grid_right_width_0_height_0_subtile_0__pin_outpad_0_
*80 left_grid_right_width_0_height_0_subtile_1__pin_outpad_0_
*81 left_grid_right_width_0_height_0_subtile_2__pin_outpad_0_
*82 left_grid_right_width_0_height_0_subtile_3__pin_outpad_0_
*83 left_grid_right_width_0_height_0_subtile_4__pin_outpad_0_
*84 left_grid_right_width_0_height_0_subtile_5__pin_outpad_0_
*85 left_grid_right_width_0_height_0_subtile_6__pin_outpad_0_
*86 left_grid_right_width_0_height_0_subtile_7__pin_outpad_0_
*87 pReset
*88 prog_clk
*89 right_grid_left_width_0_height_0_subtile_0__pin_I_11_
*90 right_grid_left_width_0_height_0_subtile_0__pin_I_3_
*91 right_grid_left_width_0_height_0_subtile_0__pin_I_7_
*94 _000_
*95 _001_
*96 _002_
*97 _003_
*98 _004_
*99 _005_
*100 _006_
*101 _007_
*102 _008_
*103 _009_
*104 _010_
*105 _011_
*106 _012_
*107 _013_
*108 _014_
*109 _015_
*110 _016_
*111 _017_
*112 _018_
*113 _019_
*114 _020_
*115 _021_
*116 _022_
*117 _023_
*118 _024_
*119 _025_
*120 _026_
*121 _027_
*122 _028_
*123 _029_
*124 _030_
*125 _031_
*126 _032_
*127 _033_
*128 _034_
*129 _035_
*130 _036_
*131 _037_
*132 _038_
*133 _039_
*134 _040_
*135 _041_
*136 _042_
*137 _043_
*138 _044_
*139 _045_
*140 _046_
*141 _047_
*142 _048_
*143 _049_
*144 _050_
*145 _051_
*146 _052_
*147 _053_
*148 _054_
*149 _055_
*150 _056_
*151 _057_
*152 _058_
*153 _059_
*154 _060_
*155 _061_
*156 _062_
*157 _063_
*158 _064_
*159 _065_
*160 _066_
*161 _067_
*162 _068_
*163 _069_
*164 _070_
*165 _071_
*166 _072_
*167 _073_
*168 _074_
*169 _075_
*170 _076_
*171 _077_
*172 _078_
*173 _079_
*174 _080_
*175 _081_
*176 _082_
*177 _083_
*178 _084_
*179 _085_
*180 _086_
*181 _087_
*182 _088_
*183 _089_
*184 _090_
*185 _091_
*186 _092_
*187 _093_
*188 _094_
*189 _095_
*190 _096_
*191 _097_
*192 _098_
*193 _099_
*194 _100_
*195 _101_
*196 _102_
*197 _103_
*198 _104_
*199 _105_
*200 _106_
*201 _107_
*202 _108_
*203 _109_
*204 _110_
*205 _111_
*206 _112_
*207 _113_
*208 _114_
*209 _115_
*210 _116_
*211 _117_
*212 _118_
*213 _119_
*214 _120_
*215 _121_
*216 _122_
*217 _123_
*218 _124_
*219 _125_
*220 _126_
*221 _127_
*222 _128_
*223 _129_
*224 _130_
*225 _131_
*226 _132_
*227 _133_
*228 _134_
*229 _135_
*230 _136_
*231 _137_
*232 _138_
*233 _139_
*234 _140_
*235 _141_
*236 _142_
*237 _143_
*238 _144_
*239 _145_
*240 _146_
*241 _147_
*242 _148_
*243 _149_
*244 _150_
*245 _151_
*246 _152_
*247 _153_
*248 _154_
*249 _155_
*250 _156_
*251 _157_
*252 _158_
*253 _159_
*254 _160_
*255 _161_
*256 _162_
*257 _163_
*258 _164_
*259 _165_
*260 _166_
*261 _167_
*262 _168_
*263 _169_
*264 _170_
*265 _171_
*266 _172_
*267 _173_
*268 _174_
*269 _175_
*270 _176_
*271 _177_
*272 _178_
*273 _179_
*274 _180_
*275 _181_
*276 _182_
*277 _183_
*278 _184_
*279 _185_
*280 _186_
*281 _187_
*282 _188_
*283 _189_
*284 _190_
*285 _191_
*286 _192_
*287 _193_
*288 _194_
*289 _195_
*290 _196_
*291 _197_
*292 _198_
*293 _199_
*294 _200_
*295 _201_
*296 mem_left_ipin_0\.DFFR_0_\.Q
*297 mem_left_ipin_0\.DFFR_1_\.Q
*298 mem_left_ipin_0\.DFFR_2_\.Q
*299 mem_left_ipin_0\.DFFR_3_\.Q
*300 mem_left_ipin_0\.DFFR_4_\.Q
*301 mem_left_ipin_0\.DFFR_5_\.Q
*302 mem_left_ipin_1\.DFFR_0_\.Q
*303 mem_left_ipin_1\.DFFR_1_\.Q
*304 mem_left_ipin_1\.DFFR_2_\.Q
*305 mem_left_ipin_1\.DFFR_3_\.Q
*306 mem_left_ipin_1\.DFFR_4_\.Q
*307 mem_left_ipin_1\.DFFR_5_\.Q
*308 mem_left_ipin_2\.DFFR_0_\.Q
*309 mem_left_ipin_2\.DFFR_1_\.Q
*310 mem_left_ipin_2\.DFFR_2_\.Q
*311 mem_left_ipin_2\.DFFR_3_\.Q
*312 mem_left_ipin_2\.DFFR_4_\.Q
*313 mem_left_ipin_2\.DFFR_5_\.Q
*314 mem_right_ipin_0\.DFFR_0_\.Q
*315 mem_right_ipin_0\.DFFR_1_\.Q
*316 mem_right_ipin_0\.DFFR_2_\.Q
*317 mem_right_ipin_0\.DFFR_3_\.Q
*318 mem_right_ipin_0\.DFFR_4_\.Q
*319 mem_right_ipin_0\.DFFR_5_\.Q
*320 mem_right_ipin_1\.DFFR_0_\.Q
*321 mem_right_ipin_1\.DFFR_1_\.Q
*322 mem_right_ipin_1\.DFFR_2_\.Q
*323 mem_right_ipin_1\.DFFR_3_\.Q
*324 mem_right_ipin_1\.DFFR_4_\.Q
*325 mem_right_ipin_1\.DFFR_5_\.Q
*326 mem_right_ipin_2\.DFFR_0_\.Q
*327 mem_right_ipin_2\.DFFR_1_\.Q
*328 mem_right_ipin_2\.DFFR_2_\.Q
*329 mem_right_ipin_2\.DFFR_3_\.Q
*330 mem_right_ipin_2\.DFFR_4_\.Q
*331 mem_right_ipin_2\.DFFR_5_\.Q
*332 mem_right_ipin_3\.DFFR_0_\.Q
*333 mem_right_ipin_3\.DFFR_1_\.Q
*334 mem_right_ipin_3\.DFFR_2_\.Q
*335 mem_right_ipin_3\.DFFR_3_\.Q
*336 mem_right_ipin_3\.DFFR_4_\.Q
*337 mem_right_ipin_3\.DFFR_5_\.Q
*338 mem_right_ipin_4\.DFFR_0_\.Q
*339 mem_right_ipin_4\.DFFR_1_\.Q
*340 mem_right_ipin_4\.DFFR_2_\.Q
*341 mem_right_ipin_4\.DFFR_3_\.Q
*342 mem_right_ipin_4\.DFFR_4_\.Q
*343 mem_right_ipin_4\.DFFR_5_\.Q
*344 mem_right_ipin_5\.DFFR_0_\.Q
*345 mem_right_ipin_5\.DFFR_1_\.Q
*346 mem_right_ipin_5\.DFFR_2_\.Q
*347 mem_right_ipin_5\.DFFR_3_\.Q
*348 mem_right_ipin_5\.DFFR_4_\.Q
*349 mem_right_ipin_5\.DFFR_5_\.Q
*350 mem_right_ipin_6\.DFFR_0_\.Q
*351 mem_right_ipin_6\.DFFR_1_\.Q
*352 mem_right_ipin_6\.DFFR_2_\.Q
*353 mem_right_ipin_6\.DFFR_3_\.Q
*354 mem_right_ipin_6\.DFFR_4_\.Q
*355 mem_right_ipin_6\.DFFR_5_\.Q
*356 mem_right_ipin_7\.DFFR_0_\.Q
*357 mem_right_ipin_7\.DFFR_1_\.Q
*358 mem_right_ipin_7\.DFFR_2_\.Q
*359 mem_right_ipin_7\.DFFR_3_\.Q
*360 mem_right_ipin_7\.DFFR_4_\.Q
*361 mux_left_ipin_0\.INVTX1_0_\.out
*362 mux_left_ipin_0\.INVTX1_1_\.out
*363 mux_left_ipin_0\.INVTX1_2_\.out
*364 mux_left_ipin_0\.INVTX1_3_\.out
*365 mux_left_ipin_0\.INVTX1_4_\.out
*366 mux_left_ipin_0\.INVTX1_5_\.out
*367 mux_left_ipin_0\.INVTX1_6_\.out
*368 mux_left_ipin_0\.INVTX1_7_\.out
*369 mux_left_ipin_0\.mux_2level_tapbuf_basis_input3_mem3_0_out
*370 mux_left_ipin_0\.mux_2level_tapbuf_basis_input3_mem3_1_out
*371 mux_left_ipin_0\.mux_2level_tapbuf_basis_input3_mem3_2_out
*372 mux_left_ipin_0\.mux_2level_tapbuf_basis_input3_mem3_3_out
*373 mux_left_ipin_1\.INVTX1_2_\.out
*374 mux_left_ipin_1\.INVTX1_3_\.out
*375 mux_left_ipin_1\.INVTX1_4_\.out
*376 mux_left_ipin_1\.INVTX1_5_\.out
*377 mux_left_ipin_1\.INVTX1_6_\.out
*378 mux_left_ipin_1\.INVTX1_7_\.out
*379 mux_left_ipin_1\.mux_2level_tapbuf_basis_input3_mem3_0_out
*380 mux_left_ipin_1\.mux_2level_tapbuf_basis_input3_mem3_1_out
*381 mux_left_ipin_1\.mux_2level_tapbuf_basis_input3_mem3_2_out
*382 mux_left_ipin_1\.mux_2level_tapbuf_basis_input3_mem3_3_out
*383 mux_left_ipin_2\.INVTX1_2_\.out
*384 mux_left_ipin_2\.INVTX1_3_\.out
*385 mux_left_ipin_2\.INVTX1_4_\.out
*386 mux_left_ipin_2\.INVTX1_5_\.out
*387 mux_left_ipin_2\.mux_2level_tapbuf_basis_input3_mem3_0_out
*388 mux_left_ipin_2\.mux_2level_tapbuf_basis_input3_mem3_1_out
*389 mux_left_ipin_2\.mux_2level_tapbuf_basis_input3_mem3_2_out
*390 mux_right_ipin_0\.INVTX1_2_\.out
*391 mux_right_ipin_0\.INVTX1_3_\.out
*392 mux_right_ipin_0\.INVTX1_4_\.out
*393 mux_right_ipin_0\.INVTX1_5_\.out
*394 mux_right_ipin_0\.INVTX1_6_\.out
*395 mux_right_ipin_0\.INVTX1_7_\.out
*396 mux_right_ipin_0\.mux_2level_tapbuf_basis_input3_mem3_0_out
*397 mux_right_ipin_0\.mux_2level_tapbuf_basis_input3_mem3_1_out
*398 mux_right_ipin_0\.mux_2level_tapbuf_basis_input3_mem3_2_out
*399 mux_right_ipin_0\.mux_2level_tapbuf_basis_input3_mem3_3_out
*400 mux_right_ipin_1\.INVTX1_2_\.out
*401 mux_right_ipin_1\.INVTX1_3_\.out
*402 mux_right_ipin_1\.INVTX1_4_\.out
*403 mux_right_ipin_1\.INVTX1_5_\.out
*404 mux_right_ipin_1\.INVTX1_6_\.out
*405 mux_right_ipin_1\.INVTX1_7_\.out
*406 mux_right_ipin_1\.mux_2level_tapbuf_basis_input3_mem3_0_out
*407 mux_right_ipin_1\.mux_2level_tapbuf_basis_input3_mem3_1_out
*408 mux_right_ipin_1\.mux_2level_tapbuf_basis_input3_mem3_2_out
*409 mux_right_ipin_1\.mux_2level_tapbuf_basis_input3_mem3_3_out
*410 mux_right_ipin_2\.INVTX1_2_\.out
*411 mux_right_ipin_2\.INVTX1_3_\.out
*412 mux_right_ipin_2\.INVTX1_6_\.out
*413 mux_right_ipin_2\.INVTX1_7_\.out
*414 mux_right_ipin_2\.mux_2level_tapbuf_basis_input3_mem3_0_out
*415 mux_right_ipin_2\.mux_2level_tapbuf_basis_input3_mem3_1_out
*416 mux_right_ipin_2\.mux_2level_tapbuf_basis_input3_mem3_2_out
*417 mux_right_ipin_2\.mux_2level_tapbuf_basis_input3_mem3_3_out
*418 mux_right_ipin_3\.mux_2level_tapbuf_basis_input3_mem3_0_out
*419 mux_right_ipin_3\.mux_2level_tapbuf_basis_input3_mem3_1_out
*420 mux_right_ipin_3\.mux_2level_tapbuf_basis_input3_mem3_2_out
*421 mux_right_ipin_3\.mux_2level_tapbuf_basis_input3_mem3_3_out
*422 mux_right_ipin_4\.mux_2level_tapbuf_basis_input3_mem3_0_out
*423 mux_right_ipin_4\.mux_2level_tapbuf_basis_input3_mem3_1_out
*424 mux_right_ipin_4\.mux_2level_tapbuf_basis_input3_mem3_2_out
*425 mux_right_ipin_4\.mux_2level_tapbuf_basis_input3_mem3_3_out
*426 mux_right_ipin_5\.INVTX1_4_\.out
*427 mux_right_ipin_5\.INVTX1_5_\.out
*428 mux_right_ipin_5\.INVTX1_6_\.out
*429 mux_right_ipin_5\.INVTX1_7_\.out
*430 mux_right_ipin_5\.mux_2level_tapbuf_basis_input3_mem3_0_out
*431 mux_right_ipin_5\.mux_2level_tapbuf_basis_input3_mem3_1_out
*432 mux_right_ipin_5\.mux_2level_tapbuf_basis_input3_mem3_2_out
*433 mux_right_ipin_5\.mux_2level_tapbuf_basis_input3_mem3_3_out
*434 mux_right_ipin_6\.mux_2level_tapbuf_basis_input3_mem3_0_out
*435 mux_right_ipin_6\.mux_2level_tapbuf_basis_input3_mem3_1_out
*436 mux_right_ipin_6\.mux_2level_tapbuf_basis_input3_mem3_2_out
*437 mux_right_ipin_6\.mux_2level_tapbuf_basis_input3_mem3_3_out
*438 mux_right_ipin_7\.mux_2level_tapbuf_basis_input3_mem3_0_out
*439 mux_right_ipin_7\.mux_2level_tapbuf_basis_input3_mem3_1_out
*440 mux_right_ipin_7\.mux_2level_tapbuf_basis_input3_mem3_2_out
*441 mux_right_ipin_7\.mux_2level_tapbuf_basis_input3_mem3_3_out
*442 net1
*443 net10
*444 net100
*445 net101
*446 net11
*447 net12
*448 net13
*449 net14
*450 net15
*451 net16
*452 net17
*453 net18
*454 net19
*455 net2
*456 net20
*457 net21
*458 net22
*459 net23
*460 net24
*461 net25
*462 net26
*463 net27
*464 net28
*465 net29
*466 net3
*467 net30
*468 net31
*469 net32
*470 net33
*471 net34
*472 net35
*473 net36
*474 net37
*475 net38
*476 net39
*477 net4
*478 net40
*479 net41
*480 net42
*481 net43
*482 net44
*483 net45
*484 net46
*485 net47
*486 net48
*487 net49
*488 net5
*489 net50
*490 net51
*491 net52
*492 net53
*493 net54
*494 net55
*495 net56
*496 net57
*497 net58
*498 net59
*499 net6
*500 net60
*501 net61
*502 net62
*503 net63
*504 net64
*505 net65
*506 net66
*507 net67
*508 net68
*509 net69
*510 net7
*511 net70
*512 net71
*513 net72
*514 net73
*515 net74
*516 net75
*517 net76
*518 net77
*519 net78
*520 net79
*521 net8
*522 net80
*523 net81
*524 net82
*525 net83
*526 net84
*527 net85
*528 net86
*529 net87
*530 net88
*531 net89
*532 net9
*533 net90
*534 net91
*535 net92
*536 net93
*537 net94
*538 net95
*539 net96
*540 net97
*541 net98
*542 net99
*543 ANTENNA__224__A
*544 ANTENNA__226__A
*545 ANTENNA__228__A
*546 ANTENNA__232__A
*547 ANTENNA__236__A
*548 ANTENNA__237__A
*549 ANTENNA__240__A
*550 ANTENNA__241__A
*551 ANTENNA__244__A
*552 ANTENNA__245__A
*553 ANTENNA__246__A
*554 ANTENNA__248__A
*555 ANTENNA__252__A
*556 ANTENNA__256__A
*557 ANTENNA__258__A
*558 ANTENNA__260__A
*559 ANTENNA__264__A
*560 ANTENNA__268__A
*561 ANTENNA__270__A
*562 ANTENNA__271__A
*563 ANTENNA__275__A
*564 ANTENNA__278__A
*565 ANTENNA__279__A
*566 ANTENNA__283__A
*567 ANTENNA__284__A
*568 ANTENNA__285__A
*569 ANTENNA__287__A
*570 ANTENNA__288__A
*571 ANTENNA__289__A
*572 ANTENNA__291__A
*573 ANTENNA__292__A
*574 ANTENNA__293__A
*575 ANTENNA__294__A
*576 ANTENNA__295__A
*577 ANTENNA__296__A
*578 ANTENNA__298__A
*579 ANTENNA__299__A
*580 ANTENNA__300__A
*581 ANTENNA__303__A
*582 ANTENNA__304__A
*583 ANTENNA__307__A
*584 ANTENNA__308__A
*585 ANTENNA__311__A
*586 ANTENNA__312__A
*587 ANTENNA__315__A
*588 ANTENNA__316__A
*589 ANTENNA__330__A
*590 ANTENNA__331__A
*591 ANTENNA__332__A
*592 ANTENNA__333__A
*593 ANTENNA__335__A
*594 ANTENNA__337__A
*595 ANTENNA__339__A
*596 ANTENNA__341__A
*597 ANTENNA__342__A
*598 ANTENNA__344__A
*599 ANTENNA__346__A
*600 ANTENNA__347__A
*601 ANTENNA__348__A
*602 ANTENNA__349__A
*603 ANTENNA__350__A
*604 ANTENNA__352__A
*605 ANTENNA__353__A
*606 ANTENNA__354__A
*607 ANTENNA__355__A
*608 ANTENNA__356__A
*609 ANTENNA__357__A
*610 ANTENNA__359__A
*611 ANTENNA__360__A
*612 ANTENNA__361__A
*613 ANTENNA__363__A
*614 ANTENNA__364__A
*615 ANTENNA__366__A
*616 ANTENNA__367__A
*617 ANTENNA__368__A
*618 ANTENNA__369__A
*619 ANTENNA__370__A
*620 ANTENNA__371__A
*621 ANTENNA__374__A
*622 ANTENNA__376__A
*623 ANTENNA__377__A
*624 ANTENNA__378__A
*625 ANTENNA__380__A
*626 ANTENNA__381__A
*627 ANTENNA__382__A
*628 ANTENNA__383__A
*629 ANTENNA__384__A
*630 ANTENNA__388__A
*631 ANTENNA__389__A
*632 ANTENNA__390__A
*633 ANTENNA__393__A
*634 ANTENNA__394__A
*635 ANTENNA__395__A
*636 ANTENNA__396__A
*637 ANTENNA__397__A
*638 ANTENNA__398__A
*639 ANTENNA__399__A
*640 ANTENNA__400__A
*641 ANTENNA__401__A
*642 ANTENNA__402__A
*643 ANTENNA__404__A
*644 ANTENNA__405__A
*645 ANTENNA__406__A
*646 ANTENNA__407__A
*647 ANTENNA__408__A
*648 ANTENNA__409__A
*649 ANTENNA__410__A
*650 ANTENNA__411__A
*651 ANTENNA__412__A
*652 ANTENNA__413__A
*653 ANTENNA__415__A
*654 ANTENNA__416__A
*655 ANTENNA__417__A
*656 ANTENNA__418__A
*657 ANTENNA__419__A
*658 ANTENNA__420__A
*659 ANTENNA__421__A
*660 ANTENNA__422__A
*661 ANTENNA__423__A
*662 ANTENNA__424__A
*663 ANTENNA__426__A
*664 ANTENNA__427__A
*665 ANTENNA__428__A
*666 ANTENNA__429__A
*667 ANTENNA__430__A
*668 ANTENNA__431__A
*669 ANTENNA__432__A
*670 ANTENNA__433__A
*671 ANTENNA__434__A
*672 ANTENNA__435__A
*673 ANTENNA__464__CLK
*674 ANTENNA__464__D
*675 ANTENNA__465__CLK
*676 ANTENNA__465__D
*677 ANTENNA__466__CLK
*678 ANTENNA__466__D
*679 ANTENNA__467__CLK
*680 ANTENNA__468__CLK
*681 ANTENNA__468__D
*682 ANTENNA__469__CLK
*683 ANTENNA__469__D
*684 ANTENNA__470__CLK
*685 ANTENNA__471__CLK
*686 ANTENNA__472__CLK
*687 ANTENNA__473__CLK
*688 ANTENNA__474__CLK
*689 ANTENNA__475__CLK
*690 ANTENNA__476__CLK
*691 ANTENNA__477__CLK
*692 ANTENNA__478__CLK
*693 ANTENNA__478__D
*694 ANTENNA__479__CLK
*695 ANTENNA__480__CLK
*696 ANTENNA__480__D
*697 ANTENNA__481__CLK
*698 ANTENNA__482__CLK
*699 ANTENNA__483__CLK
*700 ANTENNA__483__D
*701 ANTENNA__484__CLK
*702 ANTENNA__484__D
*703 ANTENNA__485__CLK
*704 ANTENNA__486__CLK
*705 ANTENNA__486__D
*706 ANTENNA__487__CLK
*707 ANTENNA__488__CLK
*708 ANTENNA__489__CLK
*709 ANTENNA__490__CLK
*710 ANTENNA__490__D
*711 ANTENNA__491__CLK
*712 ANTENNA__491__D
*713 ANTENNA__492__CLK
*714 ANTENNA__492__D
*715 ANTENNA__493__CLK
*716 ANTENNA__493__D
*717 ANTENNA__494__CLK
*718 ANTENNA__494__D
*719 ANTENNA__495__CLK
*720 ANTENNA__495__D
*721 ANTENNA__495__RESET_B
*722 ANTENNA__496__CLK
*723 ANTENNA__497__CLK
*724 ANTENNA__498__CLK
*725 ANTENNA__498__D
*726 ANTENNA__499__CLK
*727 ANTENNA__500__CLK
*728 ANTENNA__501__CLK
*729 ANTENNA__501__D
*730 ANTENNA__502__CLK
*731 ANTENNA__502__D
*732 ANTENNA__502__RESET_B
*733 ANTENNA__503__CLK
*734 ANTENNA__504__CLK
*735 ANTENNA__505__CLK
*736 ANTENNA__506__CLK
*737 ANTENNA__507__CLK
*738 ANTENNA__507__D
*739 ANTENNA__508__CLK
*740 ANTENNA__508__D
*741 ANTENNA__509__CLK
*742 ANTENNA__510__CLK
*743 ANTENNA__511__CLK
*744 ANTENNA__512__CLK
*745 ANTENNA__513__CLK
*746 ANTENNA__514__CLK
*747 ANTENNA__514__D
*748 ANTENNA__515__CLK
*749 ANTENNA__515__D
*750 ANTENNA__516__CLK
*751 ANTENNA__517__CLK
*752 ANTENNA__518__CLK
*753 ANTENNA__519__CLK
*754 ANTENNA__520__CLK
*755 ANTENNA__520__D
*756 ANTENNA__521__CLK
*757 ANTENNA__522__CLK
*758 ANTENNA__523__CLK
*759 ANTENNA__524__CLK
*760 ANTENNA__525__CLK
*761 ANTENNA__526__CLK
*762 ANTENNA__527__CLK
*763 ANTENNA__528__CLK
*764 ANTENNA__529__CLK
*765 ANTENNA__542__A
*766 ANTENNA__543__A
*767 ANTENNA__544__A
*768 ANTENNA__545__A
*769 ANTENNA__546__A
*770 ANTENNA__548__A
*771 ANTENNA__549__A
*772 ANTENNA__550__A
*773 ANTENNA__551__A
*774 ANTENNA__552__A
*775 ANTENNA__554__A
*776 ANTENNA__555__A
*777 ANTENNA__556__A
*778 ANTENNA__557__A
*779 ANTENNA__558__A
*780 ANTENNA__559__A
*781 ANTENNA__560__A
*782 ANTENNA__561__A
*783 ANTENNA__562__A
*784 ANTENNA__563__A
*785 ANTENNA__564__A
*786 ANTENNA__565__A
*787 ANTENNA__566__A
*788 ANTENNA__567__A
*789 ANTENNA__569__A
*790 ANTENNA__570__A
*791 ANTENNA__571__A
*792 ANTENNA__574__A
*793 ANTENNA__575__A
*794 ANTENNA__576__A
*795 ANTENNA__577__A
*796 ANTENNA__578__A
*797 ANTENNA__613__A
*798 ANTENNA__619__A
*799 ANTENNA__621__A
*800 ANTENNA__628__A
*801 ANTENNA__691__A
*802 ANTENNA__693__A
*803 ANTENNA_input10_A
*804 ANTENNA_input11_A
*805 ANTENNA_input12_A
*806 ANTENNA_input13_A
*807 ANTENNA_input14_A
*808 ANTENNA_input15_A
*809 ANTENNA_input16_A
*810 ANTENNA_input17_A
*811 ANTENNA_input18_A
*812 ANTENNA_input19_A
*813 ANTENNA_input1_A
*814 ANTENNA_input20_A
*815 ANTENNA_input21_A
*816 ANTENNA_input22_A
*817 ANTENNA_input23_A
*818 ANTENNA_input24_A
*819 ANTENNA_input25_A
*820 ANTENNA_input26_A
*821 ANTENNA_input27_A
*822 ANTENNA_input28_A
*823 ANTENNA_input29_A
*824 ANTENNA_input2_A
*825 ANTENNA_input30_A
*826 ANTENNA_input31_A
*827 ANTENNA_input32_A
*828 ANTENNA_input33_A
*829 ANTENNA_input34_A
*830 ANTENNA_input35_A
*831 ANTENNA_input36_A
*832 ANTENNA_input37_A
*833 ANTENNA_input38_A
*834 ANTENNA_input39_A
*835 ANTENNA_input3_A
*836 ANTENNA_input40_A
*837 ANTENNA_input4_A
*838 ANTENNA_input5_A
*839 ANTENNA_input6_A
*840 ANTENNA_input7_A
*841 ANTENNA_input8_A
*842 ANTENNA_input9_A
*843 ANTENNA_output41_A
*844 ANTENNA_output48_A
*845 ANTENNA_output56_A
*846 ANTENNA_output57_A
*847 ANTENNA_output59_A
*848 ANTENNA_output74_A
*849 ANTENNA_output75_A
*850 ANTENNA_output79_A
*851 ANTENNA_output88_A
*852 FILLER_0_104
*853 FILLER_0_110
*854 FILLER_0_113
*855 FILLER_0_119
*856 FILLER_0_127
*857 FILLER_0_133
*858 FILLER_0_139
*859 FILLER_0_141
*860 FILLER_0_146
*861 FILLER_0_154
*862 FILLER_0_166
*863 FILLER_0_169
*864 FILLER_0_17
*865 FILLER_0_175
*866 FILLER_0_183
*867 FILLER_0_189
*868 FILLER_0_195
*869 FILLER_0_197
*870 FILLER_0_205
*871 FILLER_0_210
*872 FILLER_0_222
*873 FILLER_0_225
*874 FILLER_0_23
*875 FILLER_0_231
*876 FILLER_0_239
*877 FILLER_0_245
*878 FILLER_0_251
*879 FILLER_0_253
*880 FILLER_0_26
*881 FILLER_0_261
*882 FILLER_0_266
*883 FILLER_0_278
*884 FILLER_0_281
*885 FILLER_0_287
*886 FILLER_0_29
*887 FILLER_0_293
*888 FILLER_0_3
*889 FILLER_0_301
*890 FILLER_0_307
*891 FILLER_0_309
*892 FILLER_0_315
*893 FILLER_0_327
*894 FILLER_0_331
*895 FILLER_0_334
*896 FILLER_0_337
*897 FILLER_0_34
*898 FILLER_0_343
*899 FILLER_0_349
*900 FILLER_0_357
*901 FILLER_0_363
*902 FILLER_0_365
*903 FILLER_0_371
*904 FILLER_0_377
*905 FILLER_0_382
*906 FILLER_0_390
*907 FILLER_0_393
*908 FILLER_0_405
*909 FILLER_0_42
*910 FILLER_0_54
*911 FILLER_0_57
*912 FILLER_0_63
*913 FILLER_0_75
*914 FILLER_0_82
*915 FILLER_0_85
*916 FILLER_0_9
*917 FILLER_0_90
*918 FILLER_10_109
*919 FILLER_10_121
*920 FILLER_10_133
*921 FILLER_10_139
*922 FILLER_10_141
*923 FILLER_10_15
*924 FILLER_10_153
*925 FILLER_10_165
*926 FILLER_10_177
*927 FILLER_10_189
*928 FILLER_10_195
*929 FILLER_10_197
*930 FILLER_10_209
*931 FILLER_10_221
*932 FILLER_10_233
*933 FILLER_10_245
*934 FILLER_10_251
*935 FILLER_10_253
*936 FILLER_10_265
*937 FILLER_10_27
*938 FILLER_10_277
*939 FILLER_10_289
*940 FILLER_10_29
*941 FILLER_10_3
*942 FILLER_10_301
*943 FILLER_10_307
*944 FILLER_10_309
*945 FILLER_10_321
*946 FILLER_10_333
*947 FILLER_10_345
*948 FILLER_10_357
*949 FILLER_10_363
*950 FILLER_10_365
*951 FILLER_10_377
*952 FILLER_10_389
*953 FILLER_10_401
*954 FILLER_10_41
*955 FILLER_10_53
*956 FILLER_10_65
*957 FILLER_10_77
*958 FILLER_10_83
*959 FILLER_10_85
*960 FILLER_10_97
*961 FILLER_11_105
*962 FILLER_11_111
*963 FILLER_11_113
*964 FILLER_11_125
*965 FILLER_11_137
*966 FILLER_11_149
*967 FILLER_11_161
*968 FILLER_11_167
*969 FILLER_11_169
*970 FILLER_11_181
*971 FILLER_11_19
*972 FILLER_11_193
*973 FILLER_11_205
*974 FILLER_11_217
*975 FILLER_11_223
*976 FILLER_11_225
*977 FILLER_11_237
*978 FILLER_11_249
*979 FILLER_11_261
*980 FILLER_11_273
*981 FILLER_11_279
*982 FILLER_11_281
*983 FILLER_11_293
*984 FILLER_11_3
*985 FILLER_11_305
*986 FILLER_11_31
*987 FILLER_11_317
*988 FILLER_11_329
*989 FILLER_11_335
*990 FILLER_11_337
*991 FILLER_11_349
*992 FILLER_11_361
*993 FILLER_11_373
*994 FILLER_11_385
*995 FILLER_11_391
*996 FILLER_11_393
*997 FILLER_11_405
*998 FILLER_11_43
*999 FILLER_11_55
*1000 FILLER_11_57
*1001 FILLER_11_69
*1002 FILLER_11_7
*1003 FILLER_11_81
*1004 FILLER_11_93
*1005 FILLER_12_109
*1006 FILLER_12_121
*1007 FILLER_12_133
*1008 FILLER_12_139
*1009 FILLER_12_141
*1010 FILLER_12_147
*1011 FILLER_12_151
*1012 FILLER_12_157
*1013 FILLER_12_166
*1014 FILLER_12_172
*1015 FILLER_12_184
*1016 FILLER_12_197
*1017 FILLER_12_209
*1018 FILLER_12_21
*1019 FILLER_12_221
*1020 FILLER_12_233
*1021 FILLER_12_245
*1022 FILLER_12_251
*1023 FILLER_12_253
*1024 FILLER_12_265
*1025 FILLER_12_27
*1026 FILLER_12_277
*1027 FILLER_12_289
*1028 FILLER_12_29
*1029 FILLER_12_3
*1030 FILLER_12_301
*1031 FILLER_12_307
*1032 FILLER_12_309
*1033 FILLER_12_321
*1034 FILLER_12_333
*1035 FILLER_12_345
*1036 FILLER_12_357
*1037 FILLER_12_363
*1038 FILLER_12_365
*1039 FILLER_12_377
*1040 FILLER_12_389
*1041 FILLER_12_405
*1042 FILLER_12_41
*1043 FILLER_12_53
*1044 FILLER_12_65
*1045 FILLER_12_77
*1046 FILLER_12_83
*1047 FILLER_12_85
*1048 FILLER_12_9
*1049 FILLER_12_97
*1050 FILLER_13_105
*1051 FILLER_13_111
*1052 FILLER_13_113
*1053 FILLER_13_125
*1054 FILLER_13_137
*1055 FILLER_13_149
*1056 FILLER_13_15
*1057 FILLER_13_161
*1058 FILLER_13_167
*1059 FILLER_13_169
*1060 FILLER_13_181
*1061 FILLER_13_193
*1062 FILLER_13_205
*1063 FILLER_13_217
*1064 FILLER_13_223
*1065 FILLER_13_225
*1066 FILLER_13_237
*1067 FILLER_13_249
*1068 FILLER_13_261
*1069 FILLER_13_27
*1070 FILLER_13_273
*1071 FILLER_13_279
*1072 FILLER_13_281
*1073 FILLER_13_293
*1074 FILLER_13_3
*1075 FILLER_13_305
*1076 FILLER_13_317
*1077 FILLER_13_329
*1078 FILLER_13_335
*1079 FILLER_13_337
*1080 FILLER_13_349
*1081 FILLER_13_361
*1082 FILLER_13_373
*1083 FILLER_13_385
*1084 FILLER_13_39
*1085 FILLER_13_391
*1086 FILLER_13_393
*1087 FILLER_13_405
*1088 FILLER_13_51
*1089 FILLER_13_55
*1090 FILLER_13_57
*1091 FILLER_13_69
*1092 FILLER_13_81
*1093 FILLER_13_93
*1094 FILLER_14_109
*1095 FILLER_14_121
*1096 FILLER_14_133
*1097 FILLER_14_139
*1098 FILLER_14_141
*1099 FILLER_14_15
*1100 FILLER_14_153
*1101 FILLER_14_161
*1102 FILLER_14_166
*1103 FILLER_14_172
*1104 FILLER_14_184
*1105 FILLER_14_197
*1106 FILLER_14_209
*1107 FILLER_14_221
*1108 FILLER_14_233
*1109 FILLER_14_245
*1110 FILLER_14_251
*1111 FILLER_14_253
*1112 FILLER_14_265
*1113 FILLER_14_27
*1114 FILLER_14_277
*1115 FILLER_14_289
*1116 FILLER_14_29
*1117 FILLER_14_3
*1118 FILLER_14_301
*1119 FILLER_14_307
*1120 FILLER_14_309
*1121 FILLER_14_321
*1122 FILLER_14_333
*1123 FILLER_14_345
*1124 FILLER_14_357
*1125 FILLER_14_363
*1126 FILLER_14_365
*1127 FILLER_14_377
*1128 FILLER_14_389
*1129 FILLER_14_401
*1130 FILLER_14_41
*1131 FILLER_14_53
*1132 FILLER_14_65
*1133 FILLER_14_77
*1134 FILLER_14_83
*1135 FILLER_14_85
*1136 FILLER_14_97
*1137 FILLER_15_111
*1138 FILLER_15_113
*1139 FILLER_15_118
*1140 FILLER_15_124
*1141 FILLER_15_136
*1142 FILLER_15_148
*1143 FILLER_15_160
*1144 FILLER_15_169
*1145 FILLER_15_181
*1146 FILLER_15_193
*1147 FILLER_15_197
*1148 FILLER_15_203
*1149 FILLER_15_21
*1150 FILLER_15_215
*1151 FILLER_15_223
*1152 FILLER_15_225
*1153 FILLER_15_237
*1154 FILLER_15_249
*1155 FILLER_15_261
*1156 FILLER_15_266
*1157 FILLER_15_272
*1158 FILLER_15_281
*1159 FILLER_15_293
*1160 FILLER_15_3
*1161 FILLER_15_305
*1162 FILLER_15_317
*1163 FILLER_15_329
*1164 FILLER_15_33
*1165 FILLER_15_335
*1166 FILLER_15_337
*1167 FILLER_15_349
*1168 FILLER_15_361
*1169 FILLER_15_373
*1170 FILLER_15_385
*1171 FILLER_15_391
*1172 FILLER_15_393
*1173 FILLER_15_405
*1174 FILLER_15_45
*1175 FILLER_15_53
*1176 FILLER_15_57
*1177 FILLER_15_69
*1178 FILLER_15_81
*1179 FILLER_15_87
*1180 FILLER_15_9
*1181 FILLER_15_99
*1182 FILLER_16_108
*1183 FILLER_16_114
*1184 FILLER_16_126
*1185 FILLER_16_138
*1186 FILLER_16_141
*1187 FILLER_16_15
*1188 FILLER_16_153
*1189 FILLER_16_165
*1190 FILLER_16_177
*1191 FILLER_16_189
*1192 FILLER_16_195
*1193 FILLER_16_197
*1194 FILLER_16_209
*1195 FILLER_16_221
*1196 FILLER_16_233
*1197 FILLER_16_245
*1198 FILLER_16_251
*1199 FILLER_16_253
*1200 FILLER_16_265
*1201 FILLER_16_27
*1202 FILLER_16_277
*1203 FILLER_16_289
*1204 FILLER_16_29
*1205 FILLER_16_3
*1206 FILLER_16_301
*1207 FILLER_16_307
*1208 FILLER_16_309
*1209 FILLER_16_321
*1210 FILLER_16_333
*1211 FILLER_16_345
*1212 FILLER_16_357
*1213 FILLER_16_363
*1214 FILLER_16_365
*1215 FILLER_16_377
*1216 FILLER_16_389
*1217 FILLER_16_397
*1218 FILLER_16_405
*1219 FILLER_16_41
*1220 FILLER_16_53
*1221 FILLER_16_65
*1222 FILLER_16_77
*1223 FILLER_16_83
*1224 FILLER_16_85
*1225 FILLER_16_97
*1226 FILLER_17_105
*1227 FILLER_17_111
*1228 FILLER_17_113
*1229 FILLER_17_125
*1230 FILLER_17_137
*1231 FILLER_17_149
*1232 FILLER_17_15
*1233 FILLER_17_161
*1234 FILLER_17_167
*1235 FILLER_17_169
*1236 FILLER_17_181
*1237 FILLER_17_193
*1238 FILLER_17_205
*1239 FILLER_17_217
*1240 FILLER_17_223
*1241 FILLER_17_225
*1242 FILLER_17_237
*1243 FILLER_17_249
*1244 FILLER_17_261
*1245 FILLER_17_27
*1246 FILLER_17_273
*1247 FILLER_17_279
*1248 FILLER_17_281
*1249 FILLER_17_293
*1250 FILLER_17_3
*1251 FILLER_17_305
*1252 FILLER_17_317
*1253 FILLER_17_329
*1254 FILLER_17_335
*1255 FILLER_17_337
*1256 FILLER_17_349
*1257 FILLER_17_361
*1258 FILLER_17_373
*1259 FILLER_17_385
*1260 FILLER_17_39
*1261 FILLER_17_391
*1262 FILLER_17_393
*1263 FILLER_17_405
*1264 FILLER_17_51
*1265 FILLER_17_55
*1266 FILLER_17_57
*1267 FILLER_17_69
*1268 FILLER_17_81
*1269 FILLER_17_93
*1270 FILLER_18_109
*1271 FILLER_18_121
*1272 FILLER_18_133
*1273 FILLER_18_139
*1274 FILLER_18_141
*1275 FILLER_18_15
*1276 FILLER_18_153
*1277 FILLER_18_159
*1278 FILLER_18_165
*1279 FILLER_18_177
*1280 FILLER_18_189
*1281 FILLER_18_195
*1282 FILLER_18_197
*1283 FILLER_18_209
*1284 FILLER_18_221
*1285 FILLER_18_233
*1286 FILLER_18_245
*1287 FILLER_18_251
*1288 FILLER_18_253
*1289 FILLER_18_265
*1290 FILLER_18_27
*1291 FILLER_18_277
*1292 FILLER_18_289
*1293 FILLER_18_29
*1294 FILLER_18_3
*1295 FILLER_18_301
*1296 FILLER_18_307
*1297 FILLER_18_309
*1298 FILLER_18_321
*1299 FILLER_18_333
*1300 FILLER_18_345
*1301 FILLER_18_357
*1302 FILLER_18_363
*1303 FILLER_18_365
*1304 FILLER_18_377
*1305 FILLER_18_389
*1306 FILLER_18_397
*1307 FILLER_18_402
*1308 FILLER_18_406
*1309 FILLER_18_41
*1310 FILLER_18_53
*1311 FILLER_18_65
*1312 FILLER_18_77
*1313 FILLER_18_83
*1314 FILLER_18_85
*1315 FILLER_18_97
*1316 FILLER_19_105
*1317 FILLER_19_111
*1318 FILLER_19_113
*1319 FILLER_19_125
*1320 FILLER_19_137
*1321 FILLER_19_149
*1322 FILLER_19_161
*1323 FILLER_19_167
*1324 FILLER_19_169
*1325 FILLER_19_181
*1326 FILLER_19_193
*1327 FILLER_19_205
*1328 FILLER_19_21
*1329 FILLER_19_217
*1330 FILLER_19_223
*1331 FILLER_19_225
*1332 FILLER_19_237
*1333 FILLER_19_249
*1334 FILLER_19_261
*1335 FILLER_19_273
*1336 FILLER_19_279
*1337 FILLER_19_281
*1338 FILLER_19_293
*1339 FILLER_19_3
*1340 FILLER_19_305
*1341 FILLER_19_317
*1342 FILLER_19_329
*1343 FILLER_19_33
*1344 FILLER_19_335
*1345 FILLER_19_337
*1346 FILLER_19_349
*1347 FILLER_19_361
*1348 FILLER_19_373
*1349 FILLER_19_385
*1350 FILLER_19_391
*1351 FILLER_19_393
*1352 FILLER_19_397
*1353 FILLER_19_405
*1354 FILLER_19_45
*1355 FILLER_19_53
*1356 FILLER_19_57
*1357 FILLER_19_69
*1358 FILLER_19_81
*1359 FILLER_19_9
*1360 FILLER_19_93
*1361 FILLER_1_107
*1362 FILLER_1_111
*1363 FILLER_1_113
*1364 FILLER_1_122
*1365 FILLER_1_128
*1366 FILLER_1_140
*1367 FILLER_1_15
*1368 FILLER_1_152
*1369 FILLER_1_164
*1370 FILLER_1_169
*1371 FILLER_1_181
*1372 FILLER_1_189
*1373 FILLER_1_194
*1374 FILLER_1_200
*1375 FILLER_1_212
*1376 FILLER_1_215
*1377 FILLER_1_222
*1378 FILLER_1_225
*1379 FILLER_1_237
*1380 FILLER_1_249
*1381 FILLER_1_261
*1382 FILLER_1_27
*1383 FILLER_1_273
*1384 FILLER_1_279
*1385 FILLER_1_281
*1386 FILLER_1_293
*1387 FILLER_1_3
*1388 FILLER_1_301
*1389 FILLER_1_306
*1390 FILLER_1_312
*1391 FILLER_1_324
*1392 FILLER_1_337
*1393 FILLER_1_349
*1394 FILLER_1_35
*1395 FILLER_1_361
*1396 FILLER_1_367
*1397 FILLER_1_379
*1398 FILLER_1_38
*1399 FILLER_1_384
*1400 FILLER_1_390
*1401 FILLER_1_393
*1402 FILLER_1_397
*1403 FILLER_1_405
*1404 FILLER_1_50
*1405 FILLER_1_57
*1406 FILLER_1_69
*1407 FILLER_1_77
*1408 FILLER_1_83
*1409 FILLER_1_9
*1410 FILLER_1_95
*1411 FILLER_20_109
*1412 FILLER_20_121
*1413 FILLER_20_133