*SPEF "ieee 1481-1999"
*DESIGN "cby_4__1_"
*DATE "11:11:11 Fri 11 11, 1111"
*VENDOR "OpenRCX"
*PROGRAM "Parallel Extraction"
*VERSION "1.0"
*DESIGN_FLOW "NAME_SCOPE LOCAL" "PIN_CAP NONE"
*DIVIDER /
*DELIMITER :
*BUS_DELIMITER []
*T_UNIT 1 NS
*C_UNIT 1 PF
*R_UNIT 1 OHM
*L_UNIT 1 HENRY

*NAME_MAP
*1 ccff_head
*2 ccff_tail
*3 chany_bottom_in[0]
*4 chany_bottom_in[10]
*5 chany_bottom_in[11]
*6 chany_bottom_in[12]
*7 chany_bottom_in[13]
*8 chany_bottom_in[14]
*9 chany_bottom_in[15]
*10 chany_bottom_in[16]
*11 chany_bottom_in[17]
*12 chany_bottom_in[18]
*13 chany_bottom_in[1]
*14 chany_bottom_in[2]
*15 chany_bottom_in[3]
*16 chany_bottom_in[4]
*17 chany_bottom_in[5]
*18 chany_bottom_in[6]
*19 chany_bottom_in[7]
*20 chany_bottom_in[8]
*21 chany_bottom_in[9]
*22 chany_bottom_out[0]
*23 chany_bottom_out[10]
*24 chany_bottom_out[11]
*25 chany_bottom_out[12]
*26 chany_bottom_out[13]
*27 chany_bottom_out[14]
*28 chany_bottom_out[15]
*29 chany_bottom_out[16]
*30 chany_bottom_out[17]
*31 chany_bottom_out[18]
*32 chany_bottom_out[1]
*33 chany_bottom_out[2]
*34 chany_bottom_out[3]
*35 chany_bottom_out[4]
*36 chany_bottom_out[5]
*37 chany_bottom_out[6]
*38 chany_bottom_out[7]
*39 chany_bottom_out[8]
*40 chany_bottom_out[9]
*41 chany_top_in[0]
*42 chany_top_in[10]
*43 chany_top_in[11]
*44 chany_top_in[12]
*45 chany_top_in[13]
*46 chany_top_in[14]
*47 chany_top_in[15]
*48 chany_top_in[16]
*49 chany_top_in[17]
*50 chany_top_in[18]
*51 chany_top_in[1]
*52 chany_top_in[2]
*53 chany_top_in[3]
*54 chany_top_in[4]
*55 chany_top_in[5]
*56 chany_top_in[6]
*57 chany_top_in[7]
*58 chany_top_in[8]
*59 chany_top_in[9]
*60 chany_top_out[0]
*61 chany_top_out[10]
*62 chany_top_out[11]
*63 chany_top_out[12]
*64 chany_top_out[13]
*65 chany_top_out[14]
*66 chany_top_out[15]
*67 chany_top_out[16]
*68 chany_top_out[17]
*69 chany_top_out[18]
*70 chany_top_out[1]
*71 chany_top_out[2]
*72 chany_top_out[3]
*73 chany_top_out[4]
*74 chany_top_out[5]
*75 chany_top_out[6]
*76 chany_top_out[7]
*77 chany_top_out[8]
*78 chany_top_out[9]
*79 left_grid_right_width_0_height_0_subtile_0__pin_I_1_
*80 left_grid_right_width_0_height_0_subtile_0__pin_I_5_
*81 left_grid_right_width_0_height_0_subtile_0__pin_I_9_
*82 pReset
*83 prog_clk
*84 right_grid_left_width_0_height_0_subtile_0__pin_outpad_0_
*85 right_grid_left_width_0_height_0_subtile_1__pin_outpad_0_
*86 right_grid_left_width_0_height_0_subtile_2__pin_outpad_0_
*87 right_grid_left_width_0_height_0_subtile_3__pin_outpad_0_
*88 right_grid_left_width_0_height_0_subtile_4__pin_outpad_0_
*89 right_grid_left_width_0_height_0_subtile_5__pin_outpad_0_
*90 right_grid_left_width_0_height_0_subtile_6__pin_outpad_0_
*91 right_grid_left_width_0_height_0_subtile_7__pin_outpad_0_
*94 _000_
*95 _001_
*96 _002_
*97 _003_
*98 _004_
*99 _005_
*100 _006_
*101 _007_
*102 _008_
*103 _009_
*104 _010_
*105 _011_
*106 _012_
*107 _013_
*108 _014_
*109 _015_
*110 _016_
*111 _017_
*112 _018_
*113 _019_
*114 _020_
*115 _021_
*116 _022_
*117 _023_
*118 _024_
*119 _025_
*120 _026_
*121 _027_
*122 _028_
*123 _029_
*124 _030_
*125 _031_
*126 _032_
*127 _033_
*128 _034_
*129 _035_
*130 _036_
*131 _037_
*132 _038_
*133 _039_
*134 _040_
*135 _041_
*136 _042_
*137 _043_
*138 _044_
*139 _045_
*140 _046_
*141 _047_
*142 _048_
*143 _049_
*144 _050_
*145 _051_
*146 _052_
*147 _053_
*148 _054_
*149 _055_
*150 _056_
*151 _057_
*152 _058_
*153 _059_
*154 _060_
*155 _061_
*156 _062_
*157 _063_
*158 _064_
*159 _065_
*160 _066_
*161 _067_
*162 _068_
*163 _069_
*164 _070_
*165 _071_
*166 _072_
*167 _073_
*168 _074_
*169 _075_
*170 _076_
*171 _077_
*172 _078_
*173 _079_
*174 _080_
*175 _081_
*176 _082_
*177 _083_
*178 _084_
*179 _085_
*180 _086_
*181 _087_
*182 _088_
*183 _089_
*184 _090_
*185 _091_
*186 _092_
*187 _093_
*188 _094_
*189 _095_
*190 _096_
*191 _097_
*192 _098_
*193 _099_
*194 _100_
*195 _101_
*196 _102_
*197 _103_
*198 _104_
*199 _105_
*200 _106_
*201 _107_
*202 _108_
*203 _109_
*204 _110_
*205 _111_
*206 _112_
*207 _113_
*208 _114_
*209 _115_
*210 _116_
*211 _117_
*212 _118_
*213 _119_
*214 _120_
*215 _121_
*216 _122_
*217 _123_
*218 _124_
*219 _125_
*220 _126_
*221 _127_
*222 _128_
*223 _129_
*224 _130_
*225 _131_
*226 _132_
*227 _133_
*228 _134_
*229 _135_
*230 _136_
*231 _137_
*232 _138_
*233 _139_
*234 _140_
*235 _141_
*236 _142_
*237 _143_
*238 _144_
*239 _145_
*240 _146_
*241 _147_
*242 _148_
*243 _149_
*244 _150_
*245 _151_
*246 _152_
*247 _153_
*248 _154_
*249 _155_
*250 _156_
*251 _157_
*252 _158_
*253 _159_
*254 _160_
*255 _161_
*256 _162_
*257 _163_
*258 _164_
*259 _165_
*260 _166_
*261 _167_
*262 _168_
*263 _169_
*264 _170_
*265 _171_
*266 _172_
*267 _173_
*268 _174_
*269 _175_
*270 _176_
*271 _177_
*272 _178_
*273 _179_
*274 _180_
*275 _181_
*276 _182_
*277 _183_
*278 _184_
*279 _185_
*280 _186_
*281 _187_
*282 _188_
*283 _189_
*284 _190_
*285 _191_
*286 _192_
*287 _193_
*288 _194_
*289 _195_
*290 _196_
*291 _197_
*292 _198_
*293 _199_
*294 _200_
*295 _201_
*296 _202_
*297 _203_
*298 _204_
*299 mem_left_ipin_0\.DFFR_0_\.Q
*300 mem_left_ipin_0\.DFFR_1_\.Q
*301 mem_left_ipin_0\.DFFR_2_\.Q
*302 mem_left_ipin_0\.DFFR_3_\.Q
*303 mem_left_ipin_0\.DFFR_4_\.Q
*304 mem_left_ipin_0\.DFFR_5_\.Q
*305 mem_left_ipin_1\.DFFR_0_\.Q
*306 mem_left_ipin_1\.DFFR_1_\.Q
*307 mem_left_ipin_1\.DFFR_2_\.Q
*308 mem_left_ipin_1\.DFFR_3_\.Q
*309 mem_left_ipin_1\.DFFR_4_\.Q
*310 mem_left_ipin_1\.DFFR_5_\.Q
*311 mem_left_ipin_2\.DFFR_0_\.Q
*312 mem_left_ipin_2\.DFFR_1_\.Q
*313 mem_left_ipin_2\.DFFR_2_\.Q
*314 mem_left_ipin_2\.DFFR_3_\.Q
*315 mem_left_ipin_2\.DFFR_4_\.Q
*316 mem_left_ipin_2\.DFFR_5_\.Q
*317 mem_left_ipin_3\.DFFR_0_\.Q
*318 mem_left_ipin_3\.DFFR_1_\.Q
*319 mem_left_ipin_3\.DFFR_2_\.Q
*320 mem_left_ipin_3\.DFFR_3_\.Q
*321 mem_left_ipin_3\.DFFR_4_\.Q
*322 mem_left_ipin_3\.DFFR_5_\.Q
*323 mem_left_ipin_4\.DFFR_0_\.Q
*324 mem_left_ipin_4\.DFFR_1_\.Q
*325 mem_left_ipin_4\.DFFR_2_\.Q
*326 mem_left_ipin_4\.DFFR_3_\.Q
*327 mem_left_ipin_4\.DFFR_4_\.Q
*328 mem_left_ipin_4\.DFFR_5_\.Q
*329 mem_left_ipin_5\.DFFR_0_\.Q
*330 mem_left_ipin_5\.DFFR_1_\.Q
*331 mem_left_ipin_5\.DFFR_2_\.Q
*332 mem_left_ipin_5\.DFFR_3_\.Q
*333 mem_left_ipin_5\.DFFR_4_\.Q
*334 mem_left_ipin_5\.DFFR_5_\.Q
*335 mem_left_ipin_6\.DFFR_0_\.Q
*336 mem_left_ipin_6\.DFFR_1_\.Q
*337 mem_left_ipin_6\.DFFR_2_\.Q
*338 mem_left_ipin_6\.DFFR_3_\.Q
*339 mem_left_ipin_6\.DFFR_4_\.Q
*340 mem_left_ipin_6\.DFFR_5_\.Q
*341 mem_left_ipin_7\.DFFR_0_\.Q
*342 mem_left_ipin_7\.DFFR_1_\.Q
*343 mem_left_ipin_7\.DFFR_2_\.Q
*344 mem_left_ipin_7\.DFFR_3_\.Q
*345 mem_left_ipin_7\.DFFR_4_\.Q
*346 mem_left_ipin_7\.DFFR_5_\.Q
*347 mem_right_ipin_0\.DFFR_0_\.Q
*348 mem_right_ipin_0\.DFFR_1_\.Q
*349 mem_right_ipin_0\.DFFR_2_\.Q
*350 mem_right_ipin_0\.DFFR_3_\.Q
*351 mem_right_ipin_0\.DFFR_4_\.Q
*352 mem_right_ipin_0\.DFFR_5_\.Q
*353 mem_right_ipin_1\.DFFR_0_\.Q
*354 mem_right_ipin_1\.DFFR_1_\.Q
*355 mem_right_ipin_1\.DFFR_2_\.Q
*356 mem_right_ipin_1\.DFFR_3_\.Q
*357 mem_right_ipin_1\.DFFR_4_\.Q
*358 mem_right_ipin_1\.DFFR_5_\.Q
*359 mem_right_ipin_2\.DFFR_0_\.Q
*360 mem_right_ipin_2\.DFFR_1_\.Q
*361 mem_right_ipin_2\.DFFR_2_\.Q
*362 mem_right_ipin_2\.DFFR_3_\.Q
*363 mem_right_ipin_2\.DFFR_4_\.Q
*364 mux_left_ipin_0\.INVTX1_0_\.out
*365 mux_left_ipin_0\.INVTX1_1_\.out
*366 mux_left_ipin_0\.INVTX1_2_\.out
*367 mux_left_ipin_0\.INVTX1_3_\.out
*368 mux_left_ipin_0\.INVTX1_4_\.out
*369 mux_left_ipin_0\.INVTX1_5_\.out
*370 mux_left_ipin_0\.INVTX1_6_\.out
*371 mux_left_ipin_0\.INVTX1_7_\.out
*372 mux_left_ipin_0\.mux_2level_tapbuf_basis_input3_mem3_0_out
*373 mux_left_ipin_0\.mux_2level_tapbuf_basis_input3_mem3_1_out
*374 mux_left_ipin_0\.mux_2level_tapbuf_basis_input3_mem3_2_out
*375 mux_left_ipin_0\.mux_2level_tapbuf_basis_input3_mem3_3_out
*376 mux_left_ipin_1\.INVTX1_2_\.out
*377 mux_left_ipin_1\.INVTX1_3_\.out
*378 mux_left_ipin_1\.INVTX1_4_\.out
*379 mux_left_ipin_1\.INVTX1_5_\.out
*380 mux_left_ipin_1\.INVTX1_6_\.out
*381 mux_left_ipin_1\.INVTX1_7_\.out
*382 mux_left_ipin_1\.mux_2level_tapbuf_basis_input3_mem3_0_out
*383 mux_left_ipin_1\.mux_2level_tapbuf_basis_input3_mem3_1_out
*384 mux_left_ipin_1\.mux_2level_tapbuf_basis_input3_mem3_2_out
*385 mux_left_ipin_1\.mux_2level_tapbuf_basis_input3_mem3_3_out
*386 mux_left_ipin_2\.INVTX1_2_\.out
*387 mux_left_ipin_2\.INVTX1_3_\.out
*388 mux_left_ipin_2\.INVTX1_4_\.out
*389 mux_left_ipin_2\.INVTX1_5_\.out
*390 mux_left_ipin_2\.INVTX1_6_\.out
*391 mux_left_ipin_2\.INVTX1_7_\.out
*392 mux_left_ipin_2\.mux_2level_tapbuf_basis_input3_mem3_0_out
*393 mux_left_ipin_2\.mux_2level_tapbuf_basis_input3_mem3_1_out
*394 mux_left_ipin_2\.mux_2level_tapbuf_basis_input3_mem3_2_out
*395 mux_left_ipin_2\.mux_2level_tapbuf_basis_input3_mem3_3_out
*396 mux_left_ipin_3\.INVTX1_2_\.out
*397 mux_left_ipin_3\.INVTX1_3_\.out
*398 mux_left_ipin_3\.INVTX1_4_\.out
*399 mux_left_ipin_3\.INVTX1_5_\.out
*400 mux_left_ipin_3\.INVTX1_6_\.out
*401 mux_left_ipin_3\.INVTX1_7_\.out
*402 mux_left_ipin_3\.mux_2level_tapbuf_basis_input3_mem3_0_out
*403 mux_left_ipin_3\.mux_2level_tapbuf_basis_input3_mem3_1_out
*404 mux_left_ipin_3\.mux_2level_tapbuf_basis_input3_mem3_2_out
*405 mux_left_ipin_3\.mux_2level_tapbuf_basis_input3_mem3_3_out
*406 mux_left_ipin_4\.INVTX1_2_\.out
*407 mux_left_ipin_4\.INVTX1_3_\.out
*408 mux_left_ipin_4\.INVTX1_4_\.out
*409 mux_left_ipin_4\.INVTX1_5_\.out
*410 mux_left_ipin_4\.INVTX1_6_\.out
*411 mux_left_ipin_4\.INVTX1_7_\.out
*412 mux_left_ipin_4\.mux_2level_tapbuf_basis_input3_mem3_0_out
*413 mux_left_ipin_4\.mux_2level_tapbuf_basis_input3_mem3_1_out
*414 mux_left_ipin_4\.mux_2level_tapbuf_basis_input3_mem3_2_out
*415 mux_left_ipin_4\.mux_2level_tapbuf_basis_input3_mem3_3_out
*416 mux_left_ipin_5\.INVTX1_2_\.out
*417 mux_left_ipin_5\.INVTX1_3_\.out
*418 mux_left_ipin_5\.INVTX1_4_\.out
*419 mux_left_ipin_5\.INVTX1_5_\.out
*420 mux_left_ipin_5\.INVTX1_6_\.out
*421 mux_left_ipin_5\.INVTX1_7_\.out
*422 mux_left_ipin_5\.mux_2level_tapbuf_basis_input3_mem3_0_out
*423 mux_left_ipin_5\.mux_2level_tapbuf_basis_input3_mem3_1_out
*424 mux_left_ipin_5\.mux_2level_tapbuf_basis_input3_mem3_2_out
*425 mux_left_ipin_5\.mux_2level_tapbuf_basis_input3_mem3_3_out
*426 mux_left_ipin_6\.mux_2level_tapbuf_basis_input3_mem3_0_out
*427 mux_left_ipin_6\.mux_2level_tapbuf_basis_input3_mem3_1_out
*428 mux_left_ipin_6\.mux_2level_tapbuf_basis_input3_mem3_2_out
*429 mux_left_ipin_6\.mux_2level_tapbuf_basis_input3_mem3_3_out
*430 mux_left_ipin_7\.mux_2level_tapbuf_basis_input3_mem3_0_out
*431 mux_left_ipin_7\.mux_2level_tapbuf_basis_input3_mem3_1_out
*432 mux_left_ipin_7\.mux_2level_tapbuf_basis_input3_mem3_2_out
*433 mux_left_ipin_7\.mux_2level_tapbuf_basis_input3_mem3_3_out
*434 mux_right_ipin_0\.mux_2level_tapbuf_basis_input3_mem3_0_out
*435 mux_right_ipin_0\.mux_2level_tapbuf_basis_input3_mem3_1_out
*436 mux_right_ipin_0\.mux_2level_tapbuf_basis_input3_mem3_2_out
*437 mux_right_ipin_0\.mux_2level_tapbuf_basis_input3_mem3_3_out
*438 mux_right_ipin_1\.mux_2level_tapbuf_basis_input3_mem3_0_out
*439 mux_right_ipin_1\.mux_2level_tapbuf_basis_input3_mem3_1_out
*440 mux_right_ipin_1\.mux_2level_tapbuf_basis_input3_mem3_2_out
*441 mux_right_ipin_1\.mux_2level_tapbuf_basis_input3_mem3_3_out
*442 mux_right_ipin_2\.mux_2level_tapbuf_basis_input3_mem3_0_out
*443 mux_right_ipin_2\.mux_2level_tapbuf_basis_input3_mem3_1_out
*444 mux_right_ipin_2\.mux_2level_tapbuf_basis_input3_mem3_2_out
*445 mux_right_ipin_2\.mux_2level_tapbuf_basis_input3_mem3_3_out
*446 net1
*447 net10
*448 net100
*449 net101
*450 net11
*451 net12
*452 net13
*453 net14
*454 net15
*455 net16
*456 net17
*457 net18
*458 net19
*459 net2
*460 net20
*461 net21
*462 net22
*463 net23
*464 net24
*465 net25
*466 net26
*467 net27
*468 net28
*469 net29
*470 net3
*471 net30
*472 net31
*473 net32
*474 net33
*475 net34
*476 net35
*477 net36
*478 net37
*479 net38
*480 net39
*481 net4
*482 net40
*483 net41
*484 net42
*485 net43
*486 net44
*487 net45
*488 net46
*489 net47
*490 net48
*491 net49
*492 net5
*493 net50
*494 net51
*495 net52
*496 net53
*497 net54
*498 net55
*499 net56
*500 net57
*501 net58
*502 net59
*503 net6
*504 net60
*505 net61
*506 net62
*507 net63
*508 net64
*509 net65
*510 net66
*511 net67
*512 net68
*513 net69
*514 net7
*515 net70
*516 net71
*517 net72
*518 net73
*519 net74
*520 net75
*521 net76
*522 net77
*523 net78
*524 net79
*525 net8
*526 net80
*527 net81
*528 net82
*529 net83
*530 net84
*531 net85
*532 net86
*533 net87
*534 net88
*535 net89
*536 net9
*537 net90
*538 net91
*539 net92
*540 net93
*541 net94
*542 net95
*543 net96
*544 net97
*545 net98
*546 net99
*547 ANTENNA__217__A
*548 ANTENNA__219__A
*549 ANTENNA__220__A
*550 ANTENNA__221__A
*551 ANTENNA__223__A
*552 ANTENNA__225__A
*553 ANTENNA__227__A
*554 ANTENNA__229__A
*555 ANTENNA__233__A
*556 ANTENNA__237__A
*557 ANTENNA__241__A
*558 ANTENNA__242__A
*559 ANTENNA__243__A
*560 ANTENNA__245__A
*561 ANTENNA__246__A
*562 ANTENNA__247__A
*563 ANTENNA__249__A
*564 ANTENNA__250__A
*565 ANTENNA__251__A
*566 ANTENNA__253__A
*567 ANTENNA__255__A
*568 ANTENNA__257__A
*569 ANTENNA__259__A
*570 ANTENNA__261__A
*571 ANTENNA__263__A
*572 ANTENNA__289__A
*573 ANTENNA__290__A
*574 ANTENNA__291__A
*575 ANTENNA__293__A
*576 ANTENNA__294__A
*577 ANTENNA__295__A
*578 ANTENNA__297__A
*579 ANTENNA__298__A
*580 ANTENNA__299__A
*581 ANTENNA__313__A
*582 ANTENNA__317__A
*583 ANTENNA__321__A
*584 ANTENNA__327__A
*585 ANTENNA__331__A
*586 ANTENNA__334__A
*587 ANTENNA__348__A
*588 ANTENNA__349__A
*589 ANTENNA__350__A
*590 ANTENNA__351__A
*591 ANTENNA__353__A
*592 ANTENNA__354__A
*593 ANTENNA__355__A
*594 ANTENNA__356__A
*595 ANTENNA__357__A
*596 ANTENNA__358__A
*597 ANTENNA__359__A
*598 ANTENNA__360__A
*599 ANTENNA__361__A
*600 ANTENNA__362__A
*601 ANTENNA__363__A
*602 ANTENNA__364__A
*603 ANTENNA__366__A
*604 ANTENNA__367__A
*605 ANTENNA__368__A
*606 ANTENNA__369__A
*607 ANTENNA__370__A
*608 ANTENNA__371__A
*609 ANTENNA__372__A
*610 ANTENNA__374__A
*611 ANTENNA__376__A
*612 ANTENNA__377__A
*613 ANTENNA__378__A
*614 ANTENNA__379__A
*615 ANTENNA__383__A
*616 ANTENNA__384__A
*617 ANTENNA__385__A
*618 ANTENNA__389__A
*619 ANTENNA__390__A
*620 ANTENNA__391__A
*621 ANTENNA__396__A
*622 ANTENNA__398__A
*623 ANTENNA__409__A
*624 ANTENNA__420__A
*625 ANTENNA__431__A
*626 ANTENNA__443__A
*627 ANTENNA__444__A
*628 ANTENNA__445__A
*629 ANTENNA__446__A
*630 ANTENNA__447__A
*631 ANTENNA__448__A
*632 ANTENNA__449__A
*633 ANTENNA__450__A
*634 ANTENNA__451__A
*635 ANTENNA__452__A
*636 ANTENNA__454__A
*637 ANTENNA__455__A
*638 ANTENNA__456__A
*639 ANTENNA__457__A
*640 ANTENNA__458__A
*641 ANTENNA__459__A
*642 ANTENNA__460__A
*643 ANTENNA__461__A
*644 ANTENNA__462__A
*645 ANTENNA__463__A
*646 ANTENNA__464__A
*647 ANTENNA__465__A
*648 ANTENNA__466__A
*649 ANTENNA__467__A
*650 ANTENNA__468__A
*651 ANTENNA__469__A
*652 ANTENNA__470__CLK
*653 ANTENNA__471__CLK
*654 ANTENNA__472__CLK
*655 ANTENNA__473__CLK
*656 ANTENNA__474__CLK
*657 ANTENNA__475__CLK
*658 ANTENNA__475__D
*659 ANTENNA__476__CLK
*660 ANTENNA__477__CLK
*661 ANTENNA__478__CLK
*662 ANTENNA__478__D
*663 ANTENNA__478__RESET_B
*664 ANTENNA__479__CLK
*665 ANTENNA__480__CLK
*666 ANTENNA__480__RESET_B
*667 ANTENNA__481__CLK
*668 ANTENNA__482__CLK
*669 ANTENNA__483__CLK
*670 ANTENNA__484__CLK
*671 ANTENNA__485__CLK
*672 ANTENNA__486__CLK
*673 ANTENNA__486__D
*674 ANTENNA__487__CLK
*675 ANTENNA__488__CLK
*676 ANTENNA__489__CLK
*677 ANTENNA__490__CLK
*678 ANTENNA__491__CLK
*679 ANTENNA__492__CLK
*680 ANTENNA__493__CLK
*681 ANTENNA__494__CLK
*682 ANTENNA__494__RESET_B
*683 ANTENNA__495__CLK
*684 ANTENNA__495__RESET_B
*685 ANTENNA__496__CLK
*686 ANTENNA__496__D
*687 ANTENNA__497__CLK
*688 ANTENNA__497__D
*689 ANTENNA__498__CLK
*690 ANTENNA__498__D
*691 ANTENNA__499__CLK
*692 ANTENNA__500__CLK
*693 ANTENNA__501__CLK
*694 ANTENNA__502__CLK
*695 ANTENNA__503__CLK
*696 ANTENNA__504__CLK
*697 ANTENNA__505__CLK
*698 ANTENNA__506__CLK
*699 ANTENNA__507__CLK
*700 ANTENNA__507__RESET_B
*701 ANTENNA__508__CLK
*702 ANTENNA__508__RESET_B
*703 ANTENNA__509__CLK
*704 ANTENNA__509__RESET_B
*705 ANTENNA__510__CLK
*706 ANTENNA__511__CLK
*707 ANTENNA__512__CLK
*708 ANTENNA__513__CLK
*709 ANTENNA__514__CLK
*710 ANTENNA__515__CLK
*711 ANTENNA__515__D
*712 ANTENNA__516__CLK
*713 ANTENNA__516__D
*714 ANTENNA__517__CLK
*715 ANTENNA__518__CLK
*716 ANTENNA__519__CLK
*717 ANTENNA__520__CLK
*718 ANTENNA__520__D
*719 ANTENNA__521__CLK
*720 ANTENNA__521__D
*721 ANTENNA__521__RESET_B
*722 ANTENNA__522__CLK
*723 ANTENNA__522__D
*724 ANTENNA__523__CLK
*725 ANTENNA__523__RESET_B
*726 ANTENNA__524__CLK
*727 ANTENNA__525__CLK
*728 ANTENNA__526__CLK
*729 ANTENNA__527__CLK
*730 ANTENNA__528__CLK
*731 ANTENNA__528__D
*732 ANTENNA__529__CLK
*733 ANTENNA__530__CLK
*734 ANTENNA__531__CLK
*735 ANTENNA__532__CLK
*736 ANTENNA__533__CLK
*737 ANTENNA__533__D
*738 ANTENNA__534__CLK
*739 ANTENNA__534__D
*740 ANTENNA__535__CLK
*741 ANTENNA__547__A
*742 ANTENNA__548__A
*743 ANTENNA__549__A
*744 ANTENNA__551__A
*745 ANTENNA__552__A
*746 ANTENNA__554__A
*747 ANTENNA__555__A
*748 ANTENNA__558__A
*749 ANTENNA__559__A
*750 ANTENNA__560__A
*751 ANTENNA__561__A
*752 ANTENNA__562__A
*753 ANTENNA__563__A
*754 ANTENNA__564__A
*755 ANTENNA__565__A
*756 ANTENNA__566__A
*757 ANTENNA__567__A
*758 ANTENNA__569__A
*759 ANTENNA__570__A
*760 ANTENNA__571__A
*761 ANTENNA__572__A
*762 ANTENNA__573__A
*763 ANTENNA__574__A
*764 ANTENNA__578__A
*765 ANTENNA__579__A
*766 ANTENNA__580__A
*767 ANTENNA__581__A
*768 ANTENNA__584__A
*769 ANTENNA_input10_A
*770 ANTENNA_input11_A
*771 ANTENNA_input12_A
*772 ANTENNA_input13_A
*773 ANTENNA_input14_A
*774 ANTENNA_input15_A
*775 ANTENNA_input16_A
*776 ANTENNA_input17_A
*777 ANTENNA_input18_A
*778 ANTENNA_input19_A
*779 ANTENNA_input1_A
*780 ANTENNA_input20_A
*781 ANTENNA_input21_A
*782 ANTENNA_input22_A
*783 ANTENNA_input23_A
*784 ANTENNA_input24_A
*785 ANTENNA_input25_A
*786 ANTENNA_input26_A
*787 ANTENNA_input27_A
*788 ANTENNA_input28_A
*789 ANTENNA_input29_A
*790 ANTENNA_input2_A
*791 ANTENNA_input30_A
*792 ANTENNA_input31_A
*793 ANTENNA_input32_A
*794 ANTENNA_input33_A
*795 ANTENNA_input34_A
*796 ANTENNA_input35_A
*797 ANTENNA_input36_A
*798 ANTENNA_input37_A
*799 ANTENNA_input38_A
*800 ANTENNA_input39_A
*801 ANTENNA_input3_A
*802 ANTENNA_input40_A
*803 ANTENNA_input4_A
*804 ANTENNA_input5_A
*805 ANTENNA_input6_A
*806 ANTENNA_input7_A
*807 ANTENNA_input8_A
*808 ANTENNA_input9_A
*809 ANTENNA_output41_A
*810 ANTENNA_output43_A
*811 ANTENNA_output55_A
*812 ANTENNA_output57_A
*813 ANTENNA_output59_A
*814 ANTENNA_output61_A
*815 ANTENNA_output74_A
*816 FILLER_0_104
*817 FILLER_0_110
*818 FILLER_0_113
*819 FILLER_0_117
*820 FILLER_0_138
*821 FILLER_0_141
*822 FILLER_0_145
*823 FILLER_0_166
*824 FILLER_0_169
*825 FILLER_0_17
*826 FILLER_0_173
*827 FILLER_0_194
*828 FILLER_0_197
*829 FILLER_0_220
*830 FILLER_0_225
*831 FILLER_0_23
*832 FILLER_0_248
*833 FILLER_0_253
*834 FILLER_0_259
*835 FILLER_0_26
*836 FILLER_0_268
*837 FILLER_0_276
*838 FILLER_0_281
*839 FILLER_0_287
*840 FILLER_0_29
*841 FILLER_0_293
*842 FILLER_0_3
*843 FILLER_0_301
*844 FILLER_0_307
*845 FILLER_0_309
*846 FILLER_0_315
*847 FILLER_0_322
*848 FILLER_0_329
*849 FILLER_0_335
*850 FILLER_0_337
*851 FILLER_0_34
*852 FILLER_0_343
*853 FILLER_0_349
*854 FILLER_0_357
*855 FILLER_0_363
*856 FILLER_0_365
*857 FILLER_0_371
*858 FILLER_0_375
*859 FILLER_0_380
*860 FILLER_0_390
*861 FILLER_0_393
*862 FILLER_0_405
*863 FILLER_0_42
*864 FILLER_0_48
*865 FILLER_0_54
*866 FILLER_0_57
*867 FILLER_0_63
*868 FILLER_0_71
*869 FILLER_0_81
*870 FILLER_0_85
*871 FILLER_0_9
*872 FILLER_0_90
*873 FILLER_10_100
*874 FILLER_10_106
*875 FILLER_10_113
*876 FILLER_10_138
*877 FILLER_10_141
*878 FILLER_10_147
*879 FILLER_10_15
*880 FILLER_10_154
*881 FILLER_10_181
*882 FILLER_10_187
*883 FILLER_10_194
*884 FILLER_10_197
*885 FILLER_10_222
*886 FILLER_10_226
*887 FILLER_10_250
*888 FILLER_10_253
*889 FILLER_10_258
*890 FILLER_10_265
*891 FILLER_10_27
*892 FILLER_10_284
*893 FILLER_10_29
*894 FILLER_10_297
*895 FILLER_10_3
*896 FILLER_10_304
*897 FILLER_10_309
*898 FILLER_10_314
*899 FILLER_10_321
*900 FILLER_10_328
*901 FILLER_10_334
*902 FILLER_10_340
*903 FILLER_10_352
*904 FILLER_10_365
*905 FILLER_10_377
*906 FILLER_10_389
*907 FILLER_10_401
*908 FILLER_10_41
*909 FILLER_10_53
*910 FILLER_10_65
*911 FILLER_10_77
*912 FILLER_10_83
*913 FILLER_10_85
*914 FILLER_10_91
*915 FILLER_10_94
*916 FILLER_11_104
*917 FILLER_11_110
*918 FILLER_11_113
*919 FILLER_11_119
*920 FILLER_11_141
*921 FILLER_11_166
*922 FILLER_11_169
*923 FILLER_11_175
*924 FILLER_11_19
*925 FILLER_11_197
*926 FILLER_11_222
*927 FILLER_11_225
*928 FILLER_11_250
*929 FILLER_11_275
*930 FILLER_11_279
*931 FILLER_11_281
*932 FILLER_11_286
*933 FILLER_11_292
*934 FILLER_11_3
*935 FILLER_11_306
*936 FILLER_11_31
*937 FILLER_11_313
*938 FILLER_11_320
*939 FILLER_11_326
*940 FILLER_11_332
*941 FILLER_11_337
*942 FILLER_11_341
*943 FILLER_11_353
*944 FILLER_11_365
*945 FILLER_11_377
*946 FILLER_11_389
*947 FILLER_11_393
*948 FILLER_11_405
*949 FILLER_11_43
*950 FILLER_11_55
*951 FILLER_11_57
*952 FILLER_11_69
*953 FILLER_11_7
*954 FILLER_11_81
*955 FILLER_11_89
*956 FILLER_11_92
*957 FILLER_11_98
*958 FILLER_12_103
*959 FILLER_12_110
*960 FILLER_12_117
*961 FILLER_12_124
*962 FILLER_12_131
*963 FILLER_12_138
*964 FILLER_12_141
*965 FILLER_12_164
*966 FILLER_12_170
*967 FILLER_12_192
*968 FILLER_12_197
*969 FILLER_12_209
*970 FILLER_12_21
*971 FILLER_12_215
*972 FILLER_12_237
*973 FILLER_12_244
*974 FILLER_12_250
*975 FILLER_12_253
*976 FILLER_12_257
*977 FILLER_12_269
*978 FILLER_12_27
*979 FILLER_12_281
*980 FILLER_12_29
*981 FILLER_12_293
*982 FILLER_12_3
*983 FILLER_12_305
*984 FILLER_12_309
*985 FILLER_12_320
*986 FILLER_12_326
*987 FILLER_12_332
*988 FILLER_12_344
*989 FILLER_12_356
*990 FILLER_12_365
*991 FILLER_12_377
*992 FILLER_12_389
*993 FILLER_12_405
*994 FILLER_12_41
*995 FILLER_12_53
*996 FILLER_12_65
*997 FILLER_12_77
*998 FILLER_12_82
*999 FILLER_12_85
*1000 FILLER_12_9
*1001 FILLER_12_91
*1002 FILLER_12_97
*1003 FILLER_13_103
*1004 FILLER_13_110
*1005 FILLER_13_113
*1006 FILLER_13_122
*1007 FILLER_13_135
*1008 FILLER_13_15
*1009 FILLER_13_160
*1010 FILLER_13_166
*1011 FILLER_13_169
*1012 FILLER_13_184
*1013 FILLER_13_212
*1014 FILLER_13_219
*1015 FILLER_13_223
*1016 FILLER_13_225
*1017 FILLER_13_248
*1018 FILLER_13_252
*1019 FILLER_13_262
*1020 FILLER_13_27
*1021 FILLER_13_278
*1022 FILLER_13_281
*1023 FILLER_13_292
*1024 FILLER_13_3
*1025 FILLER_13_307
*1026 FILLER_13_314
*1027 FILLER_13_321
*1028 FILLER_13_333
*1029 FILLER_13_337
*1030 FILLER_13_349
*1031 FILLER_13_361
*1032 FILLER_13_373
*1033 FILLER_13_385
*1034 FILLER_13_39
*1035 FILLER_13_391
*1036 FILLER_13_393
*1037 FILLER_13_405
*1038 FILLER_13_51
*1039 FILLER_13_55
*1040 FILLER_13_57
*1041 FILLER_13_69
*1042 FILLER_13_81
*1043 FILLER_13_84
*1044 FILLER_13_90
*1045 FILLER_13_96
*1046 FILLER_14_100
*1047 FILLER_14_110
*1048 FILLER_14_123
*1049 FILLER_14_127
*1050 FILLER_14_131
*1051 FILLER_14_138
*1052 FILLER_14_141
*1053 FILLER_14_15
*1054 FILLER_14_163
*1055 FILLER_14_170
*1056 FILLER_14_194
*1057 FILLER_14_197
*1058 FILLER_14_202
*1059 FILLER_14_208
*1060 FILLER_14_222
*1061 FILLER_14_235
*1062 FILLER_14_250
*1063 FILLER_14_253
*1064 FILLER_14_268
*1065 FILLER_14_27
*1066 FILLER_14_275
*1067 FILLER_14_279
*1068 FILLER_14_289
*1069 FILLER_14_29
*1070 FILLER_14_3
*1071 FILLER_14_301
*1072 FILLER_14_307
*1073 FILLER_14_309
*1074 FILLER_14_314
*1075 FILLER_14_321
*1076 FILLER_14_327
*1077 FILLER_14_339
*1078 FILLER_14_351
*1079 FILLER_14_363
*1080 FILLER_14_365
*1081 FILLER_14_377
*1082 FILLER_14_389
*1083 FILLER_14_401
*1084 FILLER_14_41
*1085 FILLER_14_53
*1086 FILLER_14_65
*1087 FILLER_14_77
*1088 FILLER_14_83
*1089 FILLER_14_85
*1090 FILLER_14_92
*1091 FILLER_15_103
*1092 FILLER_15_110
*1093 FILLER_15_113
*1094 FILLER_15_117
*1095 FILLER_15_127
*1096 FILLER_15_140
*1097 FILLER_15_153
*1098 FILLER_15_166
*1099 FILLER_15_169
*1100 FILLER_15_182
*1101 FILLER_15_195
*1102 FILLER_15_21
*1103 FILLER_15_212
*1104 FILLER_15_219
*1105 FILLER_15_223
*1106 FILLER_15_225
*1107 FILLER_15_240
*1108 FILLER_15_252
*1109 FILLER_15_256
*1110 FILLER_15_265
*1111 FILLER_15_269
*1112 FILLER_15_278
*1113 FILLER_15_281
*1114 FILLER_15_287
*1115 FILLER_15_296
*1116 FILLER_15_3
*1117 FILLER_15_303
*1118 FILLER_15_310
*1119 FILLER_15_317
*1120 FILLER_15_324
*1121 FILLER_15_33
*1122 FILLER_15_330
*1123 FILLER_15_337
*1124 FILLER_15_349
*1125 FILLER_15_361
*1126 FILLER_15_373
*1127 FILLER_15_385
*1128 FILLER_15_391
*1129 FILLER_15_393
*1130 FILLER_15_402
*1131 FILLER_15_406
*1132 FILLER_15_45
*1133 FILLER_15_53
*1134 FILLER_15_57
*1135 FILLER_15_69
*1136 FILLER_15_83
*1137 FILLER_15_89
*1138 FILLER_15_9
*1139 FILLER_15_96
*1140 FILLER_16_105
*1141 FILLER_16_112
*1142 FILLER_16_125
*1143 FILLER_16_138
*1144 FILLER_16_141
*1145 FILLER_16_145
*1146 FILLER_16_149
*1147 FILLER_16_15
*1148 FILLER_16_162
*1149 FILLER_16_175
*1150 FILLER_16_194
*1151 FILLER_16_197
*1152 FILLER_16_209
*1153 FILLER_16_218
*1154 FILLER_16_231
*1155 FILLER_16_243
*1156 FILLER_16_250
*1157 FILLER_16_253
*1158 FILLER_16_263
*1159 FILLER_16_27
*1160 FILLER_16_270
*1161 FILLER_16_277
*1162 FILLER_16_284
*1163 FILLER_16_29
*1164 FILLER_16_290
*1165 FILLER_16_3
*1166 FILLER_16_303
*1167 FILLER_16_307
*1168 FILLER_16_309
*1169 FILLER_16_314
*1170 FILLER_16_321
*1171 FILLER_16_327
*1172 FILLER_16_339
*1173 FILLER_16_351
*1174 FILLER_16_363
*1175 FILLER_16_365
*1176 FILLER_16_377
*1177 FILLER_16_389
*1178 FILLER_16_405
*1179 FILLER_16_41
*1180 FILLER_16_53
*1181 FILLER_16_65
*1182 FILLER_16_77
*1183 FILLER_16_82
*1184 FILLER_16_85
*1185 FILLER_16_91
*1186 FILLER_16_98
*1187 FILLER_17_103
*1188 FILLER_17_110
*1189 FILLER_17_113
*1190 FILLER_17_119
*1191 FILLER_17_123
*1192 FILLER_17_136
*1193 FILLER_17_149
*1194 FILLER_17_15
*1195 FILLER_17_155
*1196 FILLER_17_159
*1197 FILLER_17_166
*1198 FILLER_17_169
*1199 FILLER_17_184
*1200 FILLER_17_197
*1201 FILLER_17_209
*1202 FILLER_17_222
*1203 FILLER_17_225
*1204 FILLER_17_229
*1205 FILLER_17_243
*1206 FILLER_17_250
*1207 FILLER_17_258
*1208 FILLER_17_262
*1209 FILLER_17_27
*1210 FILLER_17_271
*1211 FILLER_17_278
*1212 FILLER_17_281
*1213 FILLER_17_286
*1214 FILLER_17_293
*1215 FILLER_17_3
*1216 FILLER_17_300
*1217 FILLER_17_307
*1218 FILLER_17_313
*1219 FILLER_17_319
*1220 FILLER_17_325
*1221 FILLER_17_333
*1222 FILLER_17_337
*1223 FILLER_17_349
*1224 FILLER_17_361
*1225 FILLER_17_373
*1226 FILLER_17_385
*1227 FILLER_17_39
*1228 FILLER_17_391
*1229 FILLER_17_393
*1230 FILLER_17_401
*1231 FILLER_17_405
*1232 FILLER_17_51
*1233 FILLER_17_55
*1234 FILLER_17_57
*1235 FILLER_17_69
*1236 FILLER_17_79
*1237 FILLER_17_85
*1238 FILLER_17_92
*1239 FILLER_18_102
*1240 FILLER_18_109
*1241 FILLER_18_116
*1242 FILLER_18_129
*1243 FILLER_18_138
*1244 FILLER_18_141
*1245 FILLER_18_147
*1246 FILLER_18_15
*1247 FILLER_18_151
*1248 FILLER_18_168
*1249 FILLER_18_174
*1250 FILLER_18_187
*1251 FILLER_18_194
*1252 FILLER_18_197
*1253 FILLER_18_201
*1254 FILLER_18_205
*1255 FILLER_18_212
*1256 FILLER_18_225
*1257 FILLER_18_231
*1258 FILLER_18_241
*1259 FILLER_18_248
*1260 FILLER_18_253
*1261 FILLER_18_264
*1262 FILLER_18_27
*1263 FILLER_18_276
*1264 FILLER_18_283
*1265 FILLER_18_29
*1266 FILLER_18_290
*1267 FILLER_18_297
*1268 FILLER_18_3
*1269 FILLER_18_304
*1270 FILLER_18_309
*1271 FILLER_18_314
*1272 FILLER_18_320
*1273 FILLER_18_332
*1274 FILLER_18_344
*1275 FILLER_18_356
*1276 FILLER_18_365
*1277 FILLER_18_377
*1278 FILLER_18_389
*1279 FILLER_18_401
*1280 FILLER_18_405
*1281 FILLER_18_41
*1282 FILLER_18_53
*1283 FILLER_18_65
*1284 FILLER_18_71
*1285 FILLER_18_79
*1286 FILLER_18_82
*1287 FILLER_18_85
*1288 FILLER_18_89
*1289 FILLER_18_95
*1290 FILLER_19_103
*1291 FILLER_19_110
*1292 FILLER_19_113
*1293 FILLER_19_126
*1294 FILLER_19_130
*1295 FILLER_19_134
*1296 FILLER_19_147
*1297 FILLER_19_151
*1298 FILLER_19_161
*1299 FILLER_19_167
*1300 FILLER_19_169
*1301 FILLER_19_180
*1302 FILLER_19_195
*1303 FILLER_19_199
*1304 FILLER_19_209
*1305 FILLER_19_21
*1306 FILLER_19_213
*1307 FILLER_19_222
*1308 FILLER_19_225
*1309 FILLER_19_239
*1310 FILLER_19_251
*1311 FILLER_19_263
*1312 FILLER_19_267
*1313 FILLER_19_276
*1314 FILLER_19_281
*1315 FILLER_19_286
*1316 FILLER_19_293
*1317 FILLER_19_299
*1318 FILLER_19_3
*1319 FILLER_19_303
*1320 FILLER_19_309
*1321 FILLER_19_313
*1322 FILLER_19_316
*1323 FILLER_19_328
*1324 FILLER_19_33
*1325 FILLER_19_337
*1326 FILLER_19_349
*1327 FILLER_19_361
*1328 FILLER_19_373
*1329 FILLER_19_385
*1330 FILLER_19_391
*1331 FILLER_19_393
*1332 FILLER_19_405
*1333 FILLER_19_45
*1334 FILLER_19_53
*1335 FILLER_19_57
*1336 FILLER_19_69
*1337 FILLER_19_74
*1338 FILLER_19_80
*1339 FILLER_19_9
*1340 FILLER_19_90
*1341 FILLER_19_96
*1342 FILLER_1_102
*1343 FILLER_1_110
*1344 FILLER_1_113
*1345 FILLER_1_118
*1346 FILLER_1_142
*1347 FILLER_1_15
*1348 FILLER_1_166
*1349 FILLER_1_169
*1350 FILLER_1_192
*1351 FILLER_1_198
*1352 FILLER_1_222
*1353 FILLER_1_225
*1354 FILLER_1_23
*1355 FILLER_1_247
*1356 FILLER_1_271
*1357 FILLER_1_278
*1358 FILLER_1_281
*1359 FILLER_1_29
*1360 FILLER_1_291
*1361 FILLER_1_298
*1362 FILLER_1_3
*1363 FILLER_1_305
*1364 FILLER_1_312
*1365 FILLER_1_319
*1366 FILLER_1_326
*1367 FILLER_1_333
*1368 FILLER_1_337
*1369 FILLER_1_342
*1370 FILLER_1_349
*1371 FILLER_1_356
*1372 FILLER_1_36
*1373 FILLER_1_363
*1374 FILLER_1_370
*1375 FILLER_1_376
*1376 FILLER_1_386
*1377 FILLER_1_393
*1378 FILLER_1_401
*1379 FILLER_1_43
*1380 FILLER_1_51
*1381 FILLER_1_54
*1382 FILLER_1_57
*1383 FILLER_1_61
*1384 FILLER_1_71
*1385 FILLER_1_81
*1386 FILLER_1_89
*1387 FILLER_1_9
*1388 FILLER_1_95
*1389 FILLER_20_10
*1390 FILLER_20_103
*1391 FILLER_20_110
*1392 FILLER_20_117
*1393 FILLER_20_124
*1394 FILLER_20_131
*1395 FILLER_20_138
*1396 FILLER_20_141
*1397 FILLER_20_146
*1398 FILLER_20_159
*1399 FILLER_20_16
*1400 FILLER_20_165
*1401 FILLER_20_178
*1402 FILLER_20_184
*1403 FILLER_20_194
*1404 FILLER_20_197
*1405 FILLER_20_206
*1406 FILLER_20_210
*1407 FILLER_20_220
*1408 FILLER_20_227
*1409 FILLER_20_233
*1410 FILLER_20_250
*1411 FILLER_20_253
*1412 FILLER_20_264
*1413 FILLER_20_270
*1414 FILLER_20_287
*1415 FILLER_20_29
*1416 FILLER_20_294
*1417 FILLER_20_3
*1418 FILLER_20_300