*SPEF "ieee 1481-1999"
*DESIGN "grid_io_top"
*DATE "11:11:11 Fri 11 11, 1111"
*VENDOR "OpenRCX"
*PROGRAM "Parallel Extraction"
*VERSION "1.0"
*DESIGN_FLOW "NAME_SCOPE LOCAL" "PIN_CAP NONE"
*DIVIDER /
*DELIMITER :
*BUS_DELIMITER []
*T_UNIT 1 NS
*C_UNIT 1 PF
*R_UNIT 1 OHM
*L_UNIT 1 HENRY

*NAME_MAP
*1 bottom_width_0_height_0_subtile_0__pin_inpad_0_
*2 bottom_width_0_height_0_subtile_0__pin_outpad_0_
*3 bottom_width_0_height_0_subtile_1__pin_inpad_0_
*4 bottom_width_0_height_0_subtile_1__pin_outpad_0_
*5 bottom_width_0_height_0_subtile_2__pin_inpad_0_
*6 bottom_width_0_height_0_subtile_2__pin_outpad_0_
*7 bottom_width_0_height_0_subtile_3__pin_inpad_0_
*8 bottom_width_0_height_0_subtile_3__pin_outpad_0_
*9 bottom_width_0_height_0_subtile_4__pin_inpad_0_
*10 bottom_width_0_height_0_subtile_4__pin_outpad_0_
*11 bottom_width_0_height_0_subtile_5__pin_inpad_0_
*12 bottom_width_0_height_0_subtile_5__pin_outpad_0_
*13 bottom_width_0_height_0_subtile_6__pin_inpad_0_
*14 bottom_width_0_height_0_subtile_6__pin_outpad_0_
*15 bottom_width_0_height_0_subtile_7__pin_inpad_0_
*16 bottom_width_0_height_0_subtile_7__pin_outpad_0_
*17 ccff_head
*18 ccff_tail
*19 gfpga_pad_GPIO_PAD[0]
*20 gfpga_pad_GPIO_PAD[1]
*21 gfpga_pad_GPIO_PAD[2]
*22 gfpga_pad_GPIO_PAD[3]
*23 gfpga_pad_GPIO_PAD[4]
*24 gfpga_pad_GPIO_PAD[5]
*25 gfpga_pad_GPIO_PAD[6]
*26 gfpga_pad_GPIO_PAD[7]
*27 pReset
*28 prog_clk
*31 _00_
*32 _01_
*33 _02_
*34 _03_
*35 _04_
*36 _05_
*37 _06_
*38 _07_
*39 _08_
*40 _09_
*41 _10_
*42 _11_
*43 _12_
*44 _13_
*45 _14_
*46 _15_
*47 _16_
*48 _17_
*49 _18_
*50 _19_
*51 _20_
*52 _21_
*53 _22_
*54 _23_
*55 _24_
*56 _25_
*57 _26_
*58 _27_
*59 _28_
*60 _29_
*61 _30_
*62 _31_
*63 logical_tile_io_mode_io__0\.ccff_tail
*64 logical_tile_io_mode_io__1\.ccff_tail
*65 logical_tile_io_mode_io__2\.ccff_tail
*66 logical_tile_io_mode_io__3\.ccff_tail
*67 logical_tile_io_mode_io__4\.ccff_tail
*68 logical_tile_io_mode_io__5\.ccff_tail
*69 logical_tile_io_mode_io__6\.ccff_tail
*70 net1
*71 net10
*72 net11
*73 net2
*74 net3
*75 net4
*76 net5
*77 net6
*78 net7
*79 net8
*80 net9
*81 ANTENNA__39__A
*82 ANTENNA__40__A
*83 ANTENNA__56__A
*84 ANTENNA__57__A
*85 ANTENNA__58__A
*86 ANTENNA__59__A
*87 ANTENNA__60__A
*88 ANTENNA__61__A
*89 ANTENNA__62__A
*90 ANTENNA__63__A
*91 ANTENNA__64__CLK
*92 ANTENNA__64__D
*93 ANTENNA__65__CLK
*94 ANTENNA__66__CLK
*95 ANTENNA__67__CLK
*96 ANTENNA__68__CLK
*97 ANTENNA__69__CLK
*98 ANTENNA__70__CLK
*99 ANTENNA__70__D
*100 ANTENNA__71__CLK
*101 ANTENNA__72__A
*102 ANTENNA__74__A
*103 ANTENNA__76__A
*104 ANTENNA__78__A
*105 ANTENNA__80__A
*106 ANTENNA__81__A
*107 ANTENNA__84__A
*108 ANTENNA__85__A
*109 ANTENNA__87__A
*110 ANTENNA_input10_A
*111 ANTENNA_input1_A
*112 ANTENNA_input2_A
*113 ANTENNA_input3_A
*114 ANTENNA_input4_A
*115 ANTENNA_input5_A
*116 ANTENNA_input6_A
*117 ANTENNA_input7_A
*118 ANTENNA_input8_A
*119 ANTENNA_input9_A
*120 FILLER_0_104
*121 FILLER_0_110
*122 FILLER_0_113
*123 FILLER_0_125
*124 FILLER_0_137
*125 FILLER_0_141
*126 FILLER_0_153
*127 FILLER_0_165
*128 FILLER_0_169
*129 FILLER_0_181
*130 FILLER_0_193
*131 FILLER_0_197
*132 FILLER_0_205
*133 FILLER_0_209
*134 FILLER_0_21
*135 FILLER_0_219
*136 FILLER_0_223
*137 FILLER_0_225
*138 FILLER_0_237
*139 FILLER_0_249
*140 FILLER_0_253
*141 FILLER_0_265
*142 FILLER_0_27
*143 FILLER_0_277
*144 FILLER_0_281
*145 FILLER_0_29
*146 FILLER_0_293
*147 FILLER_0_3
*148 FILLER_0_305
*149 FILLER_0_309
*150 FILLER_0_321
*151 FILLER_0_333
*152 FILLER_0_337
*153 FILLER_0_349
*154 FILLER_0_361
*155 FILLER_0_365
*156 FILLER_0_377
*157 FILLER_0_390
*158 FILLER_0_393
*159 FILLER_0_397
*160 FILLER_0_405
*161 FILLER_0_41
*162 FILLER_0_53
*163 FILLER_0_57
*164 FILLER_0_69
*165 FILLER_0_81
*166 FILLER_0_85
*167 FILLER_0_9
*168 FILLER_0_97
*169 FILLER_10_109
*170 FILLER_10_121
*171 FILLER_10_133
*172 FILLER_10_139
*173 FILLER_10_141
*174 FILLER_10_15
*175 FILLER_10_153
*176 FILLER_10_165
*177 FILLER_10_177
*178 FILLER_10_189
*179 FILLER_10_195
*180 FILLER_10_197
*181 FILLER_10_209
*182 FILLER_10_221
*183 FILLER_10_233
*184 FILLER_10_245
*185 FILLER_10_251
*186 FILLER_10_253
*187 FILLER_10_265
*188 FILLER_10_27
*189 FILLER_10_277
*190 FILLER_10_289
*191 FILLER_10_29
*192 FILLER_10_3
*193 FILLER_10_301
*194 FILLER_10_307
*195 FILLER_10_309
*196 FILLER_10_321
*197 FILLER_10_333
*198 FILLER_10_345
*199 FILLER_10_357
*200 FILLER_10_363
*201 FILLER_10_365
*202 FILLER_10_377
*203 FILLER_10_389
*204 FILLER_10_401
*205 FILLER_10_41
*206 FILLER_10_53
*207 FILLER_10_65
*208 FILLER_10_77
*209 FILLER_10_83
*210 FILLER_10_85
*211 FILLER_10_97
*212 FILLER_11_105
*213 FILLER_11_111
*214 FILLER_11_113
*215 FILLER_11_125
*216 FILLER_11_137
*217 FILLER_11_149
*218 FILLER_11_15
*219 FILLER_11_161
*220 FILLER_11_167
*221 FILLER_11_169
*222 FILLER_11_181
*223 FILLER_11_193
*224 FILLER_11_205
*225 FILLER_11_217
*226 FILLER_11_223
*227 FILLER_11_225
*228 FILLER_11_237
*229 FILLER_11_249
*230 FILLER_11_261
*231 FILLER_11_27
*232 FILLER_11_273
*233 FILLER_11_279
*234 FILLER_11_281
*235 FILLER_11_293
*236 FILLER_11_3
*237 FILLER_11_305
*238 FILLER_11_317
*239 FILLER_11_329
*240 FILLER_11_335
*241 FILLER_11_337
*242 FILLER_11_349
*243 FILLER_11_361
*244 FILLER_11_373
*245 FILLER_11_385
*246 FILLER_11_39
*247 FILLER_11_391
*248 FILLER_11_393
*249 FILLER_11_405
*250 FILLER_11_51
*251 FILLER_11_55
*252 FILLER_11_57
*253 FILLER_11_69
*254 FILLER_11_81
*255 FILLER_11_93
*256 FILLER_12_109
*257 FILLER_12_121
*258 FILLER_12_133
*259 FILLER_12_139
*260 FILLER_12_141
*261 FILLER_12_15
*262 FILLER_12_153
*263 FILLER_12_165
*264 FILLER_12_177
*265 FILLER_12_189
*266 FILLER_12_195
*267 FILLER_12_197
*268 FILLER_12_209
*269 FILLER_12_221
*270 FILLER_12_233
*271 FILLER_12_245
*272 FILLER_12_251
*273 FILLER_12_253
*274 FILLER_12_265
*275 FILLER_12_27
*276 FILLER_12_277
*277 FILLER_12_289
*278 FILLER_12_29
*279 FILLER_12_3
*280 FILLER_12_301
*281 FILLER_12_307
*282 FILLER_12_309
*283 FILLER_12_321
*284 FILLER_12_333
*285 FILLER_12_345
*286 FILLER_12_357
*287 FILLER_12_363
*288 FILLER_12_365
*289 FILLER_12_377
*290 FILLER_12_389
*291 FILLER_12_401
*292 FILLER_12_41
*293 FILLER_12_53
*294 FILLER_12_65
*295 FILLER_12_77
*296 FILLER_12_83
*297 FILLER_12_85
*298 FILLER_12_97
*299 FILLER_13_105
*300 FILLER_13_111
*301 FILLER_13_113
*302 FILLER_13_125
*303 FILLER_13_137
*304 FILLER_13_149
*305 FILLER_13_15
*306 FILLER_13_161
*307 FILLER_13_167
*308 FILLER_13_169
*309 FILLER_13_181
*310 FILLER_13_193
*311 FILLER_13_205
*312 FILLER_13_217
*313 FILLER_13_223
*314 FILLER_13_225
*315 FILLER_13_237
*316 FILLER_13_249
*317 FILLER_13_261
*318 FILLER_13_27
*319 FILLER_13_273
*320 FILLER_13_279
*321 FILLER_13_281
*322 FILLER_13_293
*323 FILLER_13_3
*324 FILLER_13_305
*325 FILLER_13_317
*326 FILLER_13_329
*327 FILLER_13_335
*328 FILLER_13_337
*329 FILLER_13_349
*330 FILLER_13_361
*331 FILLER_13_373
*332 FILLER_13_385
*333 FILLER_13_39
*334 FILLER_13_391
*335 FILLER_13_393
*336 FILLER_13_405
*337 FILLER_13_51
*338 FILLER_13_55
*339 FILLER_13_57
*340 FILLER_13_69
*341 FILLER_13_81
*342 FILLER_13_93
*343 FILLER_14_109
*344 FILLER_14_121
*345 FILLER_14_133
*346 FILLER_14_139
*347 FILLER_14_141
*348 FILLER_14_15
*349 FILLER_14_153
*350 FILLER_14_165
*351 FILLER_14_177
*352 FILLER_14_189
*353 FILLER_14_195
*354 FILLER_14_197
*355 FILLER_14_209
*356 FILLER_14_221
*357 FILLER_14_233
*358 FILLER_14_245
*359 FILLER_14_251
*360 FILLER_14_253
*361 FILLER_14_265
*362 FILLER_14_27
*363 FILLER_14_277
*364 FILLER_14_289
*365 FILLER_14_29
*366 FILLER_14_3
*367 FILLER_14_301
*368 FILLER_14_307
*369 FILLER_14_309
*370 FILLER_14_321
*371 FILLER_14_333
*372 FILLER_14_345
*373 FILLER_14_357
*374 FILLER_14_363
*375 FILLER_14_365
*376 FILLER_14_377
*377 FILLER_14_389
*378 FILLER_14_401
*379 FILLER_14_41
*380 FILLER_14_53
*381 FILLER_14_65
*382 FILLER_14_77
*383 FILLER_14_83
*384 FILLER_14_85
*385 FILLER_14_97
*386 FILLER_15_105
*387 FILLER_15_111
*388 FILLER_15_113
*389 FILLER_15_125
*390 FILLER_15_137
*391 FILLER_15_149
*392 FILLER_15_15
*393 FILLER_15_161
*394 FILLER_15_167
*395 FILLER_15_169
*396 FILLER_15_181
*397 FILLER_15_193
*398 FILLER_15_205
*399 FILLER_15_217
*400 FILLER_15_223
*401 FILLER_15_225
*402 FILLER_15_237
*403 FILLER_15_249
*404 FILLER_15_261
*405 FILLER_15_27
*406 FILLER_15_273
*407 FILLER_15_279
*408 FILLER_15_281
*409 FILLER_15_293
*410 FILLER_15_3
*411 FILLER_15_305
*412 FILLER_15_317
*413 FILLER_15_329
*414 FILLER_15_335
*415 FILLER_15_337
*416 FILLER_15_349
*417 FILLER_15_361
*418 FILLER_15_373
*419 FILLER_15_385
*420 FILLER_15_39
*421 FILLER_15_391
*422 FILLER_15_393
*423 FILLER_15_405
*424 FILLER_15_51
*425 FILLER_15_55
*426 FILLER_15_57
*427 FILLER_15_69
*428 FILLER_15_81
*429 FILLER_15_93
*430 FILLER_16_109
*431 FILLER_16_121
*432 FILLER_16_133
*433 FILLER_16_139
*434 FILLER_16_141
*435 FILLER_16_15
*436 FILLER_16_153
*437 FILLER_16_165
*438 FILLER_16_174
*439 FILLER_16_186
*440 FILLER_16_194
*441 FILLER_16_197
*442 FILLER_16_209
*443 FILLER_16_221
*444 FILLER_16_233
*445 FILLER_16_245
*446 FILLER_16_251
*447 FILLER_16_253
*448 FILLER_16_265
*449 FILLER_16_27
*450 FILLER_16_277
*451 FILLER_16_289
*452 FILLER_16_29
*453 FILLER_16_3
*454 FILLER_16_301
*455 FILLER_16_307
*456 FILLER_16_309
*457 FILLER_16_321
*458 FILLER_16_333
*459 FILLER_16_345
*460 FILLER_16_357
*461 FILLER_16_363
*462 FILLER_16_365
*463 FILLER_16_377
*464 FILLER_16_389
*465 FILLER_16_401
*466 FILLER_16_41
*467 FILLER_16_53
*468 FILLER_16_65
*469 FILLER_16_77
*470 FILLER_16_83
*471 FILLER_16_85
*472 FILLER_16_97
*473 FILLER_17_105
*474 FILLER_17_111
*475 FILLER_17_113
*476 FILLER_17_125
*477 FILLER_17_137
*478 FILLER_17_149
*479 FILLER_17_15
*480 FILLER_17_161
*481 FILLER_17_167
*482 FILLER_17_169
*483 FILLER_17_192
*484 FILLER_17_204
*485 FILLER_17_216
*486 FILLER_17_225
*487 FILLER_17_237
*488 FILLER_17_249
*489 FILLER_17_261
*490 FILLER_17_27
*491 FILLER_17_273
*492 FILLER_17_279
*493 FILLER_17_281
*494 FILLER_17_293
*495 FILLER_17_3
*496 FILLER_17_305
*497 FILLER_17_317
*498 FILLER_17_329
*499 FILLER_17_335
*500 FILLER_17_337
*501 FILLER_17_349
*502 FILLER_17_361
*503 FILLER_17_373
*504 FILLER_17_385
*505 FILLER_17_39
*506 FILLER_17_391
*507 FILLER_17_393
*508 FILLER_17_405
*509 FILLER_17_51
*510 FILLER_17_55
*511 FILLER_17_57
*512 FILLER_17_69
*513 FILLER_17_81
*514 FILLER_17_93
*515 FILLER_18_109
*516 FILLER_18_121
*517 FILLER_18_133
*518 FILLER_18_139
*519 FILLER_18_141
*520 FILLER_18_15
*521 FILLER_18_153
*522 FILLER_18_165
*523 FILLER_18_169
*524 FILLER_18_194
*525 FILLER_18_197
*526 FILLER_18_201
*527 FILLER_18_213
*528 FILLER_18_225
*529 FILLER_18_237
*530 FILLER_18_249
*531 FILLER_18_253
*532 FILLER_18_265
*533 FILLER_18_27
*534 FILLER_18_277
*535 FILLER_18_289
*536 FILLER_18_29
*537 FILLER_18_3
*538 FILLER_18_301
*539 FILLER_18_307
*540 FILLER_18_309
*541 FILLER_18_321
*542 FILLER_18_333
*543 FILLER_18_345
*544 FILLER_18_357
*545 FILLER_18_363
*546 FILLER_18_365
*547 FILLER_18_377
*548 FILLER_18_389
*549 FILLER_18_401
*550 FILLER_18_405
*551 FILLER_18_41
*552 FILLER_18_53
*553 FILLER_18_65
*554 FILLER_18_77
*555 FILLER_18_83
*556 FILLER_18_85
*557 FILLER_18_97
*558 FILLER_19_105
*559 FILLER_19_111
*560 FILLER_19_113
*561 FILLER_19_125
*562 FILLER_19_137
*563 FILLER_19_149
*564 FILLER_19_15
*565 FILLER_19_161
*566 FILLER_19_167
*567 FILLER_19_169
*568 FILLER_19_175
*569 FILLER_19_179
*570 FILLER_19_191
*571 FILLER_19_203
*572 FILLER_19_215
*573 FILLER_19_223
*574 FILLER_19_225
*575 FILLER_19_237
*576 FILLER_19_249
*577 FILLER_19_261
*578 FILLER_19_27
*579 FILLER_19_273
*580 FILLER_19_279
*581 FILLER_19_281
*582 FILLER_19_293
*583 FILLER_19_3
*584 FILLER_19_305
*585 FILLER_19_317
*586 FILLER_19_329
*587 FILLER_19_335
*588 FILLER_19_337
*589 FILLER_19_349
*590 FILLER_19_361
*591 FILLER_19_373
*592 FILLER_19_385
*593 FILLER_19_39
*594 FILLER_19_391
*595 FILLER_19_393
*596 FILLER_19_405
*597 FILLER_19_51
*598 FILLER_19_55
*599 FILLER_19_57
*600 FILLER_19_69
*601 FILLER_19_81
*602 FILLER_19_93
*603 FILLER_1_105
*604 FILLER_1_111
*605 FILLER_1_113
*606 FILLER_1_125
*607 FILLER_1_137
*608 FILLER_1_149
*609 FILLER_1_161
*610 FILLER_1_167
*611 FILLER_1_169
*612 FILLER_1_181
*613 FILLER_1_19
*614 FILLER_1_193
*615 FILLER_1_205
*616 FILLER_1_217
*617 FILLER_1_223
*618 FILLER_1_225
*619 FILLER_1_237
*620 FILLER_1_249
*621 FILLER_1_261
*622 FILLER_1_273
*623 FILLER_1_279
*624 FILLER_1_281
*625 FILLER_1_293
*626 FILLER_1_3
*627 FILLER_1_305
*628 FILLER_1_31
*629 FILLER_1_317
*630 FILLER_1_329
*631 FILLER_1_335
*632 FILLER_1_337
*633 FILLER_1_349
*634 FILLER_1_361
*635 FILLER_1_373
*636 FILLER_1_385
*637 FILLER_1_391
*638 FILLER_1_393
*639 FILLER_1_401
*640 FILLER_1_405
*641 FILLER_1_43
*642 FILLER_1_55
*643 FILLER_1_57
*644 FILLER_1_69
*645 FILLER_1_7
*646 FILLER_1_81
*647 FILLER_1_93
*648 FILLER_20_109
*649 FILLER_20_121
*650 FILLER_20_133
*651 FILLER_20_139
*652 FILLER_20_141
*653 FILLER_20_15
*654 FILLER_20_153
*655 FILLER_20_165
*656 FILLER_20_177
*657 FILLER_20_189
*658 FILLER_20_195
*659 FILLER_20_197
*660 FILLER_20_209
*661 FILLER_20_221
*662 FILLER_20_233
*663 FILLER_20_245
*664 FILLER_20_251
*665 FILLER_20_253
*666 FILLER_20_265
*667 FILLER_20_27
*668 FILLER_20_277
*669 FILLER_20_289
*670 FILLER_20_29
*671 FILLER_20_3
*672 FILLER_20_301
*673 FILLER_20_307
*674 FILLER_20_309
*675 FILLER_20_321
*676 FILLER_20_333
*677 FILLER_20_345
*678 FILLER_20_357
*679 FILLER_20_363
*680 FILLER_20_365
*681 FILLER_20_377
*682 FILLER_20_389
*683 FILLER_20_401
*684 FILLER_20_41
*685 FILLER_20_53
*686 FILLER_20_65
*687 FILLER_20_77
*688 FILLER_20_83
*689 FILLER_20_85
*690 FILLER_20_97
*691 FILLER_21_105
*692 FILLER_21_111
*693 FILLER_21_113
*694 FILLER_21_125
*695 FILLER_21_137
*696 FILLER_21_149
*697 FILLER_21_15
*698 FILLER_21_161
*699 FILLER_21_167
*700 FILLER_21_169
*701 FILLER_21_181
*702 FILLER_21_193
*703 FILLER_21_205
*704 FILLER_21_217
*705 FILLER_21_223
*706 FILLER_21_225
*707 FILLER_21_237
*708 FILLER_21_249
*709 FILLER_21_261
*710 FILLER_21_27
*711 FILLER_21_273
*712 FILLER_21_279
*713 FILLER_21_281
*714 FILLER_21_293
*715 FILLER_21_3
*716 FILLER_21_305
*717 FILLER_21_317
*718 FILLER_21_329
*719 FILLER_21_335
*720 FILLER_21_337
*721 FILLER_21_349
*722 FILLER_21_361
*723 FILLER_21_373
*724 FILLER_21_385
*725 FILLER_21_39
*726 FILLER_21_391
*727 FILLER_21_393
*728 FILLER_21_405
*729 FILLER_21_51
*730 FILLER_21_55
*731 FILLER_21_57
*732 FILLER_21_69
*733 FILLER_21_81
*734 FILLER_21_93
*735 FILLER_22_109
*736 FILLER_22_121
*737 FILLER_22_133
*738 FILLER_22_139
*739 FILLER_22_141
*740 FILLER_22_15
*741 FILLER_22_153
*742 FILLER_22_165
*743 FILLER_22_169
*744 FILLER_22_172
*745 FILLER_22_178
*746 FILLER_22_184
*747 FILLER_22_197
*748 FILLER_22_209
*749 FILLER_22_221
*750 FILLER_22_233
*751 FILLER_22_245
*752 FILLER_22_251
*753 FILLER_22_253
*754 FILLER_22_265
*755 FILLER_22_27
*756 FILLER_22_277
*757 FILLER_22_289
*758 FILLER_22_29
*759 FILLER_22_3
*760 FILLER_22_301
*761 FILLER_22_307
*762 FILLER_22_309
*763 FILLER_22_321
*764 FILLER_22_333
*765 FILLER_22_345
*766 FILLER_22_357
*767 FILLER_22_363
*768 FILLER_22_365
*769 FILLER_22_377
*770 FILLER_22_389
*771 FILLER_22_401
*772 FILLER_22_41
*773 FILLER_22_53
*774 FILLER_22_65
*775 FILLER_22_77
*776 FILLER_22_83
*777 FILLER_22_85
*778 FILLER_22_97
*779 FILLER_23_105
*780 FILLER_23_111
*781 FILLER_23_113
*782 FILLER_23_125
*783 FILLER_23_137
*784 FILLER_23_149
*785 FILLER_23_15
*786 FILLER_23_154
*787 FILLER_23_166
*788 FILLER_23_169
*789 FILLER_23_178
*790 FILLER_23_182
*791 FILLER_23_186
*792 FILLER_23_192
*793 FILLER_23_214
*794 FILLER_23_220
*795 FILLER_23_225
*796 FILLER_23_237
*797 FILLER_23_249
*798 FILLER_23_261
*799 FILLER_23_27
*800 FILLER_23_273
*801 FILLER_23_279
*802 FILLER_23_281
*803 FILLER_23_293
*804 FILLER_23_3
*805 FILLER_23_305
*806 FILLER_23_317
*807 FILLER_23_329
*808 FILLER_23_335
*809 FILLER_23_337
*810 FILLER_23_349
*811 FILLER_23_361
*812 FILLER_23_373
*813 FILLER_23_385
*814 FILLER_23_39
*815 FILLER_23_391
*816 FILLER_23_393
*817 FILLER_23_405
*818 FILLER_23_51
*819 FILLER_23_55
*820 FILLER_23_57
*821 FILLER_23_69
*822 FILLER_23_81
*823 FILLER_23_93
*824 FILLER_24_109
*825 FILLER_24_121
*826 FILLER_24_133
*827 FILLER_24_139
*828 FILLER_24_141
*829 FILLER_24_15
*830 FILLER_24_168
*831 FILLER_24_192
*832 FILLER_24_197
*833 FILLER_24_202
*834 FILLER_24_208
*835 FILLER_24_220
*836 FILLER_24_232
*837 FILLER_24_244
*838 FILLER_24_253
*839 FILLER_24_265
*840 FILLER_24_27
*841 FILLER_24_277
*842 FILLER_24_289
*843 FILLER_24_29
*844 FILLER_24_3
*845 FILLER_24_301
*846 FILLER_24_307
*847 FILLER_24_309
*848 FILLER_24_321
*849 FILLER_24_333
*850 FILLER_24_345
*851 FILLER_24_357
*852 FILLER_24_363
*853 FILLER_24_365
*854 FILLER_24_377
*855 FILLER_24_389
*856 FILLER_24_401
*857 FILLER_24_41
*858 FILLER_24_53
*859 FILLER_24_65
*860 FILLER_24_77
*861 FILLER_24_83
*862 FILLER_24_85
*863 FILLER_24_97
*864 FILLER_25_102
*865 FILLER_25_110
*866 FILLER_25_113
*867 FILLER_25_125
*868 FILLER_25_137
*869 FILLER_25_142
*870 FILLER_25_15
*871 FILLER_25_166
*872 FILLER_25_169
*873 FILLER_25_176
*874 FILLER_25_203
*875 FILLER_25_210
*876 FILLER_25_222
*877 FILLER_25_225
*878 FILLER_25_237
*879 FILLER_25_249
*880 FILLER_25_261
*881 FILLER_25_27
*882 FILLER_25_273
*883 FILLER_25_279
*884 FILLER_25_281
*885 FILLER_25_293
*886 FILLER_25_3
*887 FILLER_25_305
*888 FILLER_25_317
*889 FILLER_25_329
*890 FILLER_25_335
*891 FILLER_25_337
*892 FILLER_25_349
*893 FILLER_25_361
*894 FILLER_25_373
*895 FILLER_25_385
*896 FILLER_25_39
*897 FILLER_25_391
*898 FILLER_25_393
*899 FILLER_25_405
*900 FILLER_25_51
*901 FILLER_25_55
*902 FILLER_25_57
*903 FILLER_25_90
*904 FILLER_26_109
*905 FILLER_26_121
*906 FILLER_26_133
*907 FILLER_26_139
*908 FILLER_26_14
*909 FILLER_26_141
*910 FILLER_26_152
*911 FILLER_26_159
*912 FILLER_26_184
*913 FILLER_26_191
*914 FILLER_26_195
*915 FILLER_26_197
*916 FILLER_26_201
*917 FILLER_26_213
*918 FILLER_26_225
*919 FILLER_26_237
*920 FILLER_26_249
*921 FILLER_26_253
*922 FILLER_26_26
*923 FILLER_26_265
*924 FILLER_26_277
*925 FILLER_26_289
*926 FILLER_26_29
*927 FILLER_26_3
*928 FILLER_26_301
*929 FILLER_26_307
*930 FILLER_26_309
*931 FILLER_26_321
*932 FILLER_26_333
*933 FILLER_26_345
*934 FILLER_26_357
*935 FILLER_26_363
*936 FILLER_26_365
*937 FILLER_26_377
*938 FILLER_26_389
*939 FILLER_26_401
*940 FILLER_26_41
*941 FILLER_26_53
*942 FILLER_26_65
*943 FILLER_26_71
*944 FILLER_26_75
*945 FILLER_26_8
*946 FILLER_26_83
*947 FILLER_26_85
*948 FILLER_26_97
*949 FILLER_27_100
*950 FILLER_27_113
*951 FILLER_27_125
*952 FILLER_27_137
*953 FILLER_27_149
*954 FILLER_27_15
*955 FILLER_27_153
*956 FILLER_27_159
*957 FILLER_27_166
*958 FILLER_27_169
*959 FILLER_27_191
*960 FILLER_27_203
*961 FILLER_27_215
*962 FILLER_27_223
*963 FILLER_27_225
*964 FILLER_27_237
*965 FILLER_27_249
*966 FILLER_27_261
*967 FILLER_27_27
*968 FILLER_27_273
*969 FILLER_27_279
*970 FILLER_27_281
*971 FILLER_27_293
*972 FILLER_27_3
*973 FILLER_27_305
*974 FILLER_27_317
*975 FILLER_27_329
*976 FILLER_27_335
*977 FILLER_27_337
*978 FILLER_27_349
*979 FILLER_27_361
*980 FILLER_27_373
*981 FILLER_27_385
*982 FILLER_27_39
*983 FILLER_27_391
*984 FILLER_27_393
*985 FILLER_27_405
*986 FILLER_27_51
*987 FILLER_27_55
*988 FILLER_27_57
*989 FILLER_27_65
*990 FILLER_27_69
*991 FILLER_27_94
*992 FILLER_28_109
*993 FILLER_28_121
*994 FILLER_28_133
*995 FILLER_28_139
*996 FILLER_28_141
*997 FILLER_28_15
*998 FILLER_28_153
*999 FILLER_28_158
*1000 FILLER_28_182
*1001 FILLER_28_188
*1002 FILLER_28_197
*1003 FILLER_28_209
*1004 FILLER_28_221
*1005 FILLER_28_233
*1006 FILLER_28_245
*1007 FILLER_28_251
*1008 FILLER_28_253
*1009 FILLER_28_265
*1010 FILLER_28_27
*1011 FILLER_28_277
*1012 FILLER_28_289
*1013 FILLER_28_29
*1014 FILLER_28_3
*1015 FILLER_28_301
*1016 FILLER_28_307
*1017 FILLER_28_309
*1018 FILLER_28_321
*1019 FILLER_28_333
*1020 FILLER_28_345
*1021 FILLER_28_357
*1022 FILLER_28_363
*1023 FILLER_28_365
*1024 FILLER_28_377
*1025 FILLER_28_389
*1026 FILLER_28_401
*1027 FILLER_28_41
*1028 FILLER_28_53
*1029 FILLER_28_65
*1030 FILLER_28_73
*1031 FILLER_28_78
*1032 FILLER_28_85
*1033 FILLER_28_97
*1034 FILLER_29_105
*1035 FILLER_29_111
*1036 FILLER_29_113
*1037 FILLER_29_125
*1038 FILLER_29_137
*1039 FILLER_29_149
*1040 FILLER_29_15
*1041 FILLER_29_161
*1042 FILLER_29_167
*1043 FILLER_29_169
*1044 FILLER_29_184
*1045 FILLER_29_190
*1046 FILLER_29_202
*1047 FILLER_29_214
*1048 FILLER_29_222
*1049 FILLER_29_225
*1050 FILLER_29_237
*1051 FILLER_29_249
*1052 FILLER_29_261
*1053 FILLER_29_27
*1054 FILLER_29_273
*1055 FILLER_29_279
*1056 FILLER_29_281
*1057 FILLER_29_293
*1058 FILLER_29_3
*1059 FILLER_29_305
*1060 FILLER_29_317
*1061 FILLER_29_329
*1062 FILLER_29_335
*1063 FILLER_29_337
*1064 FILLER_29_349
*1065 FILLER_29_361
*1066 FILLER_29_373
*1067 FILLER_29_385
*1068 FILLER_29_39
*1069 FILLER_29_391
*1070 FILLER_29_393
*1071 FILLER_29_405
*1072 FILLER_29_51
*1073 FILLER_29_55
*1074 FILLER_29_57
*1075 FILLER_29_69
*1076 FILLER_29_81
*1077 FILLER_29_93
*1078 FILLER_2_109
*1079 FILLER_2_121
*1080 FILLER_2_133
*1081 FILLER_2_139
*1082 FILLER_2_141
*1083 FILLER_2_15
*1084 FILLER_2_153
*1085 FILLER_2_165
*1086 FILLER_2_177
*1087 FILLER_2_189
*1088 FILLER_2_195
*1089 FILLER_2_197
*1090 FILLER_2_209
*1091 FILLER_2_221
*1092 FILLER_2_233
*1093 FILLER_2_245
*1094 FILLER_2_251
*1095 FILLER_2_253
*1096 FILLER_2_265
*1097 FILLER_2_27
*1098 FILLER_2_277
*1099 FILLER_2_289
*1100 FILLER_2_29
*1101 FILLER_2_3
*1102 FILLER_2_301
*1103 FILLER_2_307
*1104 FILLER_2_309
*1105 FILLER_2_321
*1106 FILLER_2_333
*1107 FILLER_2_345
*1108 FILLER_2_357
*1109 FILLER_2_363
*1110 FILLER_2_365
*1111 FILLER_2_377
*1112 FILLER_2_389
*1113 FILLER_2_401
*1114 FILLER_2_41
*1115 FILLER_2_53
*1116 FILLER_2_65
*1117 FILLER_2_77
*1118 FILLER_2_83
*1119 FILLER_2_85
*1120 FILLER_2_97
*1121 FILLER_30_109
*1122 FILLER_30_121
*1123 FILLER_30_133
*1124 FILLER_30_139
*1125 FILLER_30_141
*1126 FILLER_30_15
*1127 FILLER_30_153
*1128 FILLER_30_161
*1129 FILLER_30_166
*1130 FILLER_30_190
*1131 FILLER_30_197
*1132 FILLER_30_209
*1133 FILLER_30_221
*1134 FILLER_30_233
*1135 FILLER_30_245
*1136 FILLER_30_251
*1137 FILLER_30_253
*1138 FILLER_30_265
*1139 FILLER_30_27
*1140 FILLER_30_277
*1141 FILLER_30_289
*1142 FILLER_30_29
*1143 FILLER_30_3
*1144 FILLER_30_301
*1145 FILLER_30_307
*1146 FILLER_30_309
*1147 FILLER_30_321
*1148 FILLER_30_333
*1149 FILLER_30_345
*1150 FILLER_30_357
*1151 FILLER_30_363
*1152 FILLER_30_365
*1153 FILLER_30_377
*1154 FILLER_30_389
*1155 FILLER_30_401
*1156 FILLER_30_41
*1157 FILLER_30_53
*1158 FILLER_30_65
*1159 FILLER_30_77
*1160 FILLER_30_83
*1161 FILLER_30_85
*1162 FILLER_30_97
*1163 FILLER_31_105
*1164 FILLER_31_111
*1165 FILLER_31_113
*1166 FILLER_31_125
*1167 FILLER_31_137
*1168 FILLER_31_149
*1169 FILLER_31_15
*1170 FILLER_31_161
*1171 FILLER_31_167
*1172 FILLER_31_169
*1173 FILLER_31_181
*1174 FILLER_31_193
*1175 FILLER_31_205
*1176 FILLER_31_217
*1177 FILLER_31_223
*1178 FILLER_31_225
*1179 FILLER_31_237
*1180 FILLER_31_249
*1181 FILLER_31_261
*1182 FILLER_31_27
*1183 FILLER_31_273
*1184 FILLER_31_279
*1185 FILLER_31_281
*1186 FILLER_31_293
*1187 FILLER_31_3
*1188 FILLER_31_305
*1189 FILLER_31_317
*1190 FILLER_31_329
*1191 FILLER_31_335
*1192 FILLER_31_337
*1193 FILLER_31_349
*1194 FILLER_31_361
*1195 FILLER_31_373
*1196 FILLER_31_385
*1197 FILLER_31_39
*1198 FILLER_31_391
*1199 FILLER_31_393
*1200 FILLER_31_405
*1201 FILLER_31_51
*1202 FILLER_31_55
*1203 FILLER_31_57
*1204 FILLER_31_69
*1205 FILLER_31_81
*1206 FILLER_31_93
*1207 FILLER_32_109
*1208 FILLER_32_121
*1209 FILLER_32_133
*1210 FILLER_32_139
*1211 FILLER_32_141
*1212 FILLER_32_15
*1213 FILLER_32_153
*1214 FILLER_32_165
*1215 FILLER_32_177
*1216 FILLER_32_189
*1217 FILLER_32_195
*1218 FILLER_32_197
*1219 FILLER_32_209
*1220 FILLER_32_221
*1221 FILLER_32_233
*1222 FILLER_32_245
*1223 FILLER_32_251
*1224 FILLER_32_253
*1225 FILLER_32_265
*1226 FILLER_32_27
*1227 FILLER_32_277
*1228 FILLER_32_289
*1229 FILLER_32_29
*1230 FILLER_32_3
*1231 FILLER_32_301
*1232 FILLER_32_307
*1233 FILLER_32_309
*1234 FILLER_32_321
*1235 FILLER_32_333
*1236 FILLER_32_345
*1237 FILLER_32_357
*1238 FILLER_32_363
*1239 FILLER_32_365
*1240 FILLER_32_377
*1241 FILLER_32_389
*1242 FILLER_32_401
*1243 FILLER_32_41
*1244 FILLER_32_53
*1245 FILLER_32_65
*1246 FILLER_32_77
*1247 FILLER_32_83
*1248 FILLER_32_85
*1249 FILLER_32_97
*1250 FILLER_33_105
*1251 FILLER_33_111
*1252 FILLER_33_113
*1253 FILLER_33_125
*1254 FILLER_33_137
*1255 FILLER_33_149
*1256 FILLER_33_15
*1257 FILLER_33_161
*1258 FILLER_33_167
*1259 FILLER_33_169
*1260 FILLER_33_181
*1261 FILLER_33_193
*1262 FILLER_33_205
*1263 FILLER_33_217
*1264 FILLER_33_223
*1265 FILLER_33_225
*1266 FILLER_33_237
*1267 FILLER_33_249
*1268 FILLER_33_261
*1269 FILLER_33_27
*1270 FILLER_33_273
*1271 FILLER_33_279
*1272 FILLER_33_281
*1273 FILLER_33_293
*1274 FILLER_33_3
*1275 FILLER_33_305
*1276 FILLER_33_317
*1277 FILLER_33_329
*1278 FILLER_33_335
*1279 FILLER_33_337
*1280 FILLER_33_349
*1281 FILLER_33_361
*1282 FILLER_33_373
*1283 FILLER_33_385
*1284 FILLER_33_39
*1285 FILLER_33_391
*1286 FILLER_33_393
*1287 FILLER_33_405
*1288 FILLER_33_51
*1289 FILLER_33_55
*1290 FILLER_33_57
*1291 FILLER_33_69
*1292 FILLER_33_81
*1293 FILLER_33_93
*1294 FILLER_34_109
*1295 FILLER_34_121
*1296 FILLER_34_133
*1297 FILLER_34_139
*1298 FILLER_34_141
*1299 FILLER_34_15
*1300 FILLER_34_153
*1301 FILLER_34_165
*1302 FILLER_34_177
*1303 FILLER_34_189
*1304 FILLER_34_195
*1305 FILLER_34_197
*1306 FILLER_34_209
*1307 FILLER_34_221
*1308 FILLER_34_233
*1309 FILLER_34_245
*1310 FILLER_34_251
*1311 FILLER_34_253
*1312 FILLER_34_265
*1313 FILLER_34_27
*1314 FILLER_34_277
*1315 FILLER_34_289
*1316 FILLER_34_29
*1317 FILLER_34_3
*1318 FILLER_34_301
*1319 FILLER_34_307
*1320 FILLER_34_309
*1321 FILLER_34_321
*1322 FILLER_34_333
*1323 FILLER_34_345
*1324 FILLER_34_357
*1325 FILLER_34_363
*1326 FILLER_34_365
*1327 FILLER_34_377
*1328 FILLER_34_389
*1329 FILLER_34_401
*1330 FILLER_34_41
*1331 FILLER_34_53
*1332 FILLER_34_65
*1333 FILLER_34_77
*1334 FILLER_34_83
*1335 FILLER_34_85
*1336 FILLER_34_97
*1337 FILLER_35_105
*1338 FILLER_35_111
*1339 FILLER_35_113
*1340 FILLER_35_125
*1341 FILLER_35_137
*1342 FILLER_35_149
*1343 FILLER_35_15
*1344 FILLER_35_161
*1345 FILLER_35_167
*1346 FILLER_35_169
*1347 FILLER_35_181
*1348 FILLER_35_193
*1349 FILLER_35_205
*1350 FILLER_35_217
*1351 FILLER_35_223
*1352 FILLER_35_225
*1353 FILLER_35_237
*1354 FILLER_35_249
*1355 FILLER_35_261
*1356 FILLER_35_27
*1357 FILLER_35_273
*1358 FILLER_35_279
*1359 FILLER_35_281
*1360 FILLER_35_293
*1361 FILLER_35_3
*1362 FILLER_35_305
*1363 FILLER_35_317
*1364 FILLER_35_329
*1365 FILLER_35_335
*1366 FILLER_35_337
*1367 FILLER_35_349
*1368 FILLER_35_361
*1369 FILLER_35_373
*1370 FILLER_35_385
*1371 FILLER_35_39
*1372 FILLER_35_391
*1373 FILLER_35_393
*1374 FILLER_35_405
*1375 FILLER_35_51
*1376 FILLER_35_55
*1377 FILLER_35_57
*1378 FILLER_35_69
*1379 FILLER_35_81
*1380 FILLER_35_93
*1381 FILLER_36_109
*1382 FILLER_36_121
*1383 FILLER_36_133
*1384 FILLER_36_139
*1385 FILLER_36_141
*1386 FILLER_36_15
*1387 FILLER_36_153
*1388 FILLER_36_165
*1389 FILLER_36_177
*1390 FILLER_36_189
*1391 FILLER_36_195
*1392 FILLER_36_197
*1393 FILLER_36_209
*1394 FILLER_36_221
*1395 FILLER_36_233
*1396 FILLER_36_245
*1397 FILLER_36_251
*1398 FILLER_36_253
*1399 FILLER_36_265
*1400 FILLER_36_27
*1401 FILLER_36_277
*1402 FILLER_36_289
*1403 FILLER_36_29
*1404 FILLER_36_3
*1405 FILLER_36_301
*1406 FILLER_36_307
*1407 FILLER_36_309
*1408 FILLER_36_321
*1409 FILLER_36_333
*1410 FILLER_36_345
*1411 FILLER_36_357
*1412 FILLER_36_363
*1413 FILLER_36_365
*1414 FILLER_36_377
*1415 FILLER_36_389
*1416 FILLER_36_401
*1417 FILLER_36_41
*1418 FILLER_36_53
*1419 FILLER_36_65
*1420 FILLER_36_77
*1421 FILLER_36_83
*1422 FILLER_36_85
*1423 FILLER_36_97
*1424 FILLER_37_105
*1425 FILLER_37_111
*1426 FILLER_37_113
*1427 FILLER_37_125
*1428 FILLER_37_137
*1429 FILLER_37_149
*1430 FILLER_37_15
*1431 FILLER_37_161
*1432 FILLER_37_167
*1433 FILLER_37_169
*1434 FILLER_37_181
*1435 FILLER_37_193
*1436 FILLER_37_205
*1437 FILLER_37_217
*1438 FILLER_37_223
*1439 FILLER_37_225
*1440 FILLER_37_237
*1441 FILLER_37_249
*1442 FILLER_37_261
*1443 FILLER_37_27
*1444 FILLER_37_273
*1445 FILLER_37_279
*1446 FILLER_37_281
*1447 FILLER_37_293
*1448 FILLER_37_3
*1449 FILLER_37_305
*1450 FILLER_37_317
*1451 FILLER_37_329
*1452 FILLER_37_335
*1453 FILLER_37_337
*1454 FILLER_37_349
*1455 FILLER_37_361
*1456 FILLER_37_373
*1457 FILLER_37_385
*1458 FILLER_37_39
*1459 FILLER_37_391
*1460 FILLER_37_393
*1461 FILLER_37_405
*1462 FILLER_37_51
*1463 FILLER_37_55
*1464 FILLER_37_57
*1465 FILLER_37_69
*1466 FILLER_37_81
*1467 FILLER_37_93
*1468 FILLER_38_109
*1469 FILLER_38_121
*1470 FILLER_38_133
*1471 FILLER_38_139
*1472 FILLER_38_141
*1473 FILLER_38_15
*1474 FILLER_38_153
*1475 FILLER_38_165
*1476 FILLER_38_177
*1477 FILLER_38_189
*1478 FILLER_38_195
*1479 FILLER_38_197
*1480 FILLER_38_209
*1481 FILLER_38_221
*1482 FILLER_38_233
*1483 FILLER_38_245
*1484 FILLER_38_251
*1485 FILLER_38_253
*1486 FILLER_38_265
*1487 FILLER_38_27
*1488 FILLER_38_277
*1489 FILLER_38_289
*1490 FILLER_38_29
*1491 FILLER_38_3
*1492 FILLER_38_301
*1493 FILLER_38_307
*1494 FILLER_38_309
*1495 FILLER_38_321
*1496 FILLER_38_333
*1497 FILLER_38_345
*1498 FILLER_38_357
*1499 FILLER_38_363
*1500 FILLER_38_365
*1501 FILLER_38_377
*1502 FILLER_38_389
*1503 FILLER_38_401
*1504 FILLER_38_41
*1505 FILLER_38_53
*1506 FILLER_38_65
*1507 FILLER_38_77
*1508 FILLER_38_83
*1509 FILLER_38_85
*1510 FILLER_38_97
*1511 FILLER_39_105
*1512 FILLER_39_111
*1513 FILLER_39_113
*1514 FILLER_39_125
*1515 FILLER_39_137
*1516 FILLER_39_149
*1517 FILLER_39_15
*1518 FILLER_39_161
*1519 FILLER_39_167
*1520 FILLER_39_169
*1521 FILLER_39_173
*1522 FILLER_39_176
*1523 FILLER_39_201
*1524 FILLER_39_213
*1525 FILLER_39_221
*1526 FILLER_39_225
*1527 FILLER_39_237
*1528 FILLER_39_249
*1529 FILLER_39_261
*1530 FILLER_39_27
*1531 FILLER_39_273
*1532 FILLER_39_279
*1533 FILLER_39_281
*1534 FILLER_39_293
*1535 FILLER_39_3
*1536 FILLER_39_305
*1537 FILLER_39_317
*1538 FILLER_39_329
*1539 FILLER_39_335
*1540 FILLER_39_337
*1541 FILLER_39_349
*1542 FILLER_39_361
*1543 FILLER_39_373
*1544 FILLER_39_385
*1545 FILLER_39_39