*SPEF "ieee 1481-1999"
*DESIGN "grid_io_bottom"
*DATE "11:11:11 Fri 11 11, 1111"
*VENDOR "OpenRCX"
*PROGRAM "Parallel Extraction"
*VERSION "1.0"
*DESIGN_FLOW "NAME_SCOPE LOCAL" "PIN_CAP NONE"
*DIVIDER /
*DELIMITER :
*BUS_DELIMITER []
*T_UNIT 1 NS
*C_UNIT 1 PF
*R_UNIT 1 OHM
*L_UNIT 1 HENRY

*NAME_MAP
*1 ccff_head
*2 ccff_tail
*3 gfpga_pad_GPIO_PAD[0]
*4 gfpga_pad_GPIO_PAD[1]
*5 gfpga_pad_GPIO_PAD[2]
*6 gfpga_pad_GPIO_PAD[3]
*7 gfpga_pad_GPIO_PAD[4]
*8 gfpga_pad_GPIO_PAD[5]
*9 gfpga_pad_GPIO_PAD[6]
*10 gfpga_pad_GPIO_PAD[7]
*11 pReset
*12 prog_clk
*13 top_width_0_height_0_subtile_0__pin_inpad_0_
*14 top_width_0_height_0_subtile_0__pin_outpad_0_
*15 top_width_0_height_0_subtile_1__pin_inpad_0_
*16 top_width_0_height_0_subtile_1__pin_outpad_0_
*17 top_width_0_height_0_subtile_2__pin_inpad_0_
*18 top_width_0_height_0_subtile_2__pin_outpad_0_
*19 top_width_0_height_0_subtile_3__pin_inpad_0_
*20 top_width_0_height_0_subtile_3__pin_outpad_0_
*21 top_width_0_height_0_subtile_4__pin_inpad_0_
*22 top_width_0_height_0_subtile_4__pin_outpad_0_
*23 top_width_0_height_0_subtile_5__pin_inpad_0_
*24 top_width_0_height_0_subtile_5__pin_outpad_0_
*25 top_width_0_height_0_subtile_6__pin_inpad_0_
*26 top_width_0_height_0_subtile_6__pin_outpad_0_
*27 top_width_0_height_0_subtile_7__pin_inpad_0_
*28 top_width_0_height_0_subtile_7__pin_outpad_0_
*31 _00_
*32 _01_
*33 _02_
*34 _03_
*35 _04_
*36 _05_
*37 _06_
*38 _07_
*39 _08_
*40 _09_
*41 _10_
*42 _11_
*43 _12_
*44 _13_
*45 _14_
*46 _15_
*47 _16_
*48 _17_
*49 _18_
*50 _19_
*51 _20_
*52 _21_
*53 _22_
*54 _23_
*55 _24_
*56 _25_
*57 _26_
*58 _27_
*59 _28_
*60 _29_
*61 _30_
*62 _31_
*63 logical_tile_io_mode_io__0\.ccff_tail
*64 logical_tile_io_mode_io__1\.ccff_tail
*65 logical_tile_io_mode_io__2\.ccff_tail
*66 logical_tile_io_mode_io__3\.ccff_tail
*67 logical_tile_io_mode_io__4\.ccff_tail
*68 logical_tile_io_mode_io__5\.ccff_tail
*69 logical_tile_io_mode_io__6\.ccff_tail
*70 net1
*71 net10
*72 net11
*73 net2
*74 net3
*75 net4
*76 net5
*77 net6
*78 net7
*79 net8
*80 net9
*81 ANTENNA__33__A
*82 ANTENNA__34__A
*83 ANTENNA__56__A
*84 ANTENNA__57__A
*85 ANTENNA__58__A
*86 ANTENNA__59__A
*87 ANTENNA__60__A
*88 ANTENNA__61__A
*89 ANTENNA__62__A
*90 ANTENNA__63__A
*91 ANTENNA__64__CLK
*92 ANTENNA__65__CLK
*93 ANTENNA__66__CLK
*94 ANTENNA__67__CLK
*95 ANTENNA__68__CLK
*96 ANTENNA__69__CLK
*97 ANTENNA__70__CLK
*98 ANTENNA__71__CLK
*99 ANTENNA__72__A
*100 ANTENNA__73__A
*101 ANTENNA__74__A
*102 ANTENNA__75__A
*103 ANTENNA__76__A
*104 ANTENNA__77__A
*105 ANTENNA__78__A
*106 ANTENNA__80__A
*107 ANTENNA__86__A
*108 ANTENNA_input10_A
*109 ANTENNA_input1_A
*110 ANTENNA_input2_A
*111 ANTENNA_input3_A
*112 ANTENNA_input4_A
*113 ANTENNA_input5_A
*114 ANTENNA_input6_A
*115 ANTENNA_input7_A
*116 ANTENNA_input8_A
*117 ANTENNA_input9_A
*118 ANTENNA_output11_A
*119 FILLER_0_105
*120 FILLER_0_111
*121 FILLER_0_113
*122 FILLER_0_125
*123 FILLER_0_137
*124 FILLER_0_141
*125 FILLER_0_15
*126 FILLER_0_153
*127 FILLER_0_160
*128 FILLER_0_166
*129 FILLER_0_169
*130 FILLER_0_181
*131 FILLER_0_193
*132 FILLER_0_197
*133 FILLER_0_209
*134 FILLER_0_221
*135 FILLER_0_225
*136 FILLER_0_237
*137 FILLER_0_249
*138 FILLER_0_253
*139 FILLER_0_265
*140 FILLER_0_27
*141 FILLER_0_277
*142 FILLER_0_281
*143 FILLER_0_29
*144 FILLER_0_293
*145 FILLER_0_3
*146 FILLER_0_305
*147 FILLER_0_309
*148 FILLER_0_321
*149 FILLER_0_333
*150 FILLER_0_337
*151 FILLER_0_349
*152 FILLER_0_361
*153 FILLER_0_365
*154 FILLER_0_377
*155 FILLER_0_389
*156 FILLER_0_393
*157 FILLER_0_397
*158 FILLER_0_405
*159 FILLER_0_41
*160 FILLER_0_53
*161 FILLER_0_57
*162 FILLER_0_69
*163 FILLER_0_81
*164 FILLER_0_85
*165 FILLER_0_97
*166 FILLER_10_109
*167 FILLER_10_121
*168 FILLER_10_133
*169 FILLER_10_139
*170 FILLER_10_141
*171 FILLER_10_15
*172 FILLER_10_153
*173 FILLER_10_165
*174 FILLER_10_177
*175 FILLER_10_189
*176 FILLER_10_195
*177 FILLER_10_197
*178 FILLER_10_209
*179 FILLER_10_221
*180 FILLER_10_233
*181 FILLER_10_245
*182 FILLER_10_251
*183 FILLER_10_253
*184 FILLER_10_265
*185 FILLER_10_27
*186 FILLER_10_277
*187 FILLER_10_289
*188 FILLER_10_29
*189 FILLER_10_3
*190 FILLER_10_301
*191 FILLER_10_307
*192 FILLER_10_309
*193 FILLER_10_321
*194 FILLER_10_333
*195 FILLER_10_345
*196 FILLER_10_357
*197 FILLER_10_363
*198 FILLER_10_365
*199 FILLER_10_377
*200 FILLER_10_389
*201 FILLER_10_401
*202 FILLER_10_41
*203 FILLER_10_53
*204 FILLER_10_65
*205 FILLER_10_77
*206 FILLER_10_83
*207 FILLER_10_85
*208 FILLER_10_97
*209 FILLER_11_105
*210 FILLER_11_111
*211 FILLER_11_113
*212 FILLER_11_125
*213 FILLER_11_137
*214 FILLER_11_149
*215 FILLER_11_15
*216 FILLER_11_161
*217 FILLER_11_167
*218 FILLER_11_169
*219 FILLER_11_181
*220 FILLER_11_193
*221 FILLER_11_205
*222 FILLER_11_217
*223 FILLER_11_223
*224 FILLER_11_225
*225 FILLER_11_237
*226 FILLER_11_249
*227 FILLER_11_261
*228 FILLER_11_27
*229 FILLER_11_273
*230 FILLER_11_279
*231 FILLER_11_281
*232 FILLER_11_293
*233 FILLER_11_3
*234 FILLER_11_305
*235 FILLER_11_317
*236 FILLER_11_329
*237 FILLER_11_335
*238 FILLER_11_337
*239 FILLER_11_349
*240 FILLER_11_361
*241 FILLER_11_373
*242 FILLER_11_385
*243 FILLER_11_39
*244 FILLER_11_391
*245 FILLER_11_393
*246 FILLER_11_405
*247 FILLER_11_51
*248 FILLER_11_55
*249 FILLER_11_57
*250 FILLER_11_69
*251 FILLER_11_81
*252 FILLER_11_93
*253 FILLER_12_109
*254 FILLER_12_121
*255 FILLER_12_133
*256 FILLER_12_139
*257 FILLER_12_141
*258 FILLER_12_15
*259 FILLER_12_153
*260 FILLER_12_165
*261 FILLER_12_177
*262 FILLER_12_189
*263 FILLER_12_195
*264 FILLER_12_197
*265 FILLER_12_209
*266 FILLER_12_221
*267 FILLER_12_233
*268 FILLER_12_245
*269 FILLER_12_251
*270 FILLER_12_253
*271 FILLER_12_265
*272 FILLER_12_27
*273 FILLER_12_277
*274 FILLER_12_289
*275 FILLER_12_29
*276 FILLER_12_3
*277 FILLER_12_301
*278 FILLER_12_307
*279 FILLER_12_309
*280 FILLER_12_321
*281 FILLER_12_333
*282 FILLER_12_345
*283 FILLER_12_357
*284 FILLER_12_363
*285 FILLER_12_365
*286 FILLER_12_377
*287 FILLER_12_389
*288 FILLER_12_401
*289 FILLER_12_41
*290 FILLER_12_53
*291 FILLER_12_65
*292 FILLER_12_77
*293 FILLER_12_83
*294 FILLER_12_85
*295 FILLER_12_97
*296 FILLER_13_105
*297 FILLER_13_111
*298 FILLER_13_113
*299 FILLER_13_125
*300 FILLER_13_137
*301 FILLER_13_149
*302 FILLER_13_15
*303 FILLER_13_161
*304 FILLER_13_167
*305 FILLER_13_169
*306 FILLER_13_181
*307 FILLER_13_189
*308 FILLER_13_192
*309 FILLER_13_203
*310 FILLER_13_215
*311 FILLER_13_223
*312 FILLER_13_225
*313 FILLER_13_237
*314 FILLER_13_249
*315 FILLER_13_261
*316 FILLER_13_27
*317 FILLER_13_273
*318 FILLER_13_279
*319 FILLER_13_281
*320 FILLER_13_293
*321 FILLER_13_3
*322 FILLER_13_305
*323 FILLER_13_317
*324 FILLER_13_329
*325 FILLER_13_335
*326 FILLER_13_337
*327 FILLER_13_349
*328 FILLER_13_361
*329 FILLER_13_373
*330 FILLER_13_385
*331 FILLER_13_39
*332 FILLER_13_391
*333 FILLER_13_393
*334 FILLER_13_405
*335 FILLER_13_51
*336 FILLER_13_55
*337 FILLER_13_57
*338 FILLER_13_69
*339 FILLER_13_81
*340 FILLER_13_93
*341 FILLER_14_109
*342 FILLER_14_121
*343 FILLER_14_133
*344 FILLER_14_139
*345 FILLER_14_141
*346 FILLER_14_15
*347 FILLER_14_153
*348 FILLER_14_165
*349 FILLER_14_173
*350 FILLER_14_176
*351 FILLER_14_184
*352 FILLER_14_190
*353 FILLER_14_197
*354 FILLER_14_220
*355 FILLER_14_232
*356 FILLER_14_244
*357 FILLER_14_253
*358 FILLER_14_265
*359 FILLER_14_27
*360 FILLER_14_277
*361 FILLER_14_289
*362 FILLER_14_29
*363 FILLER_14_3
*364 FILLER_14_301
*365 FILLER_14_307
*366 FILLER_14_309
*367 FILLER_14_321
*368 FILLER_14_333
*369 FILLER_14_345
*370 FILLER_14_357
*371 FILLER_14_363
*372 FILLER_14_365
*373 FILLER_14_377
*374 FILLER_14_389
*375 FILLER_14_401
*376 FILLER_14_41
*377 FILLER_14_53
*378 FILLER_14_65
*379 FILLER_14_77
*380 FILLER_14_83
*381 FILLER_14_85
*382 FILLER_14_97
*383 FILLER_15_105
*384 FILLER_15_111
*385 FILLER_15_113
*386 FILLER_15_125
*387 FILLER_15_137
*388 FILLER_15_149
*389 FILLER_15_15
*390 FILLER_15_161
*391 FILLER_15_167
*392 FILLER_15_169
*393 FILLER_15_175
*394 FILLER_15_197
*395 FILLER_15_222
*396 FILLER_15_225
*397 FILLER_15_229
*398 FILLER_15_241
*399 FILLER_15_253
*400 FILLER_15_265
*401 FILLER_15_27
*402 FILLER_15_277
*403 FILLER_15_281
*404 FILLER_15_293
*405 FILLER_15_3
*406 FILLER_15_305
*407 FILLER_15_317
*408 FILLER_15_329
*409 FILLER_15_335
*410 FILLER_15_337
*411 FILLER_15_349
*412 FILLER_15_361
*413 FILLER_15_373
*414 FILLER_15_385
*415 FILLER_15_39
*416 FILLER_15_391
*417 FILLER_15_393
*418 FILLER_15_405
*419 FILLER_15_51
*420 FILLER_15_55
*421 FILLER_15_57
*422 FILLER_15_69
*423 FILLER_15_81
*424 FILLER_15_93
*425 FILLER_16_109
*426 FILLER_16_121
*427 FILLER_16_133
*428 FILLER_16_139
*429 FILLER_16_141
*430 FILLER_16_15
*431 FILLER_16_153
*432 FILLER_16_165
*433 FILLER_16_177
*434 FILLER_16_189
*435 FILLER_16_195
*436 FILLER_16_197
*437 FILLER_16_203
*438 FILLER_16_210
*439 FILLER_16_222
*440 FILLER_16_234
*441 FILLER_16_246
*442 FILLER_16_253
*443 FILLER_16_265
*444 FILLER_16_27
*445 FILLER_16_277
*446 FILLER_16_289
*447 FILLER_16_29
*448 FILLER_16_3
*449 FILLER_16_301
*450 FILLER_16_307
*451 FILLER_16_309
*452 FILLER_16_321
*453 FILLER_16_333
*454 FILLER_16_345
*455 FILLER_16_357
*456 FILLER_16_363
*457 FILLER_16_365
*458 FILLER_16_377
*459 FILLER_16_389
*460 FILLER_16_401
*461 FILLER_16_41
*462 FILLER_16_53
*463 FILLER_16_65
*464 FILLER_16_77
*465 FILLER_16_83
*466 FILLER_16_85
*467 FILLER_16_97
*468 FILLER_17_105
*469 FILLER_17_111
*470 FILLER_17_113
*471 FILLER_17_125
*472 FILLER_17_137
*473 FILLER_17_149
*474 FILLER_17_15
*475 FILLER_17_161
*476 FILLER_17_167
*477 FILLER_17_169
*478 FILLER_17_181
*479 FILLER_17_193
*480 FILLER_17_205
*481 FILLER_17_217
*482 FILLER_17_223
*483 FILLER_17_225
*484 FILLER_17_237
*485 FILLER_17_249
*486 FILLER_17_261
*487 FILLER_17_27
*488 FILLER_17_273
*489 FILLER_17_279
*490 FILLER_17_281
*491 FILLER_17_293
*492 FILLER_17_3
*493 FILLER_17_305
*494 FILLER_17_317
*495 FILLER_17_329
*496 FILLER_17_335
*497 FILLER_17_337
*498 FILLER_17_349
*499 FILLER_17_361
*500 FILLER_17_373
*501 FILLER_17_385
*502 FILLER_17_39
*503 FILLER_17_391
*504 FILLER_17_393
*505 FILLER_17_405
*506 FILLER_17_51
*507 FILLER_17_55
*508 FILLER_17_57
*509 FILLER_17_69
*510 FILLER_17_81
*511 FILLER_17_93
*512 FILLER_18_109
*513 FILLER_18_121
*514 FILLER_18_133
*515 FILLER_18_139
*516 FILLER_18_141
*517 FILLER_18_15
*518 FILLER_18_153
*519 FILLER_18_165
*520 FILLER_18_177
*521 FILLER_18_189
*522 FILLER_18_195
*523 FILLER_18_197
*524 FILLER_18_209
*525 FILLER_18_221
*526 FILLER_18_233
*527 FILLER_18_245
*528 FILLER_18_251
*529 FILLER_18_253
*530 FILLER_18_265
*531 FILLER_18_27
*532 FILLER_18_277
*533 FILLER_18_289
*534 FILLER_18_29
*535 FILLER_18_3
*536 FILLER_18_301
*537 FILLER_18_307
*538 FILLER_18_309
*539 FILLER_18_321
*540 FILLER_18_333
*541 FILLER_18_345
*542 FILLER_18_357
*543 FILLER_18_363
*544 FILLER_18_365
*545 FILLER_18_377
*546 FILLER_18_389
*547 FILLER_18_401
*548 FILLER_18_41
*549 FILLER_18_53
*550 FILLER_18_65
*551 FILLER_18_77
*552 FILLER_18_83
*553 FILLER_18_85
*554 FILLER_18_97
*555 FILLER_19_105
*556 FILLER_19_111
*557 FILLER_19_113
*558 FILLER_19_125
*559 FILLER_19_137
*560 FILLER_19_149
*561 FILLER_19_15
*562 FILLER_19_161
*563 FILLER_19_167
*564 FILLER_19_169
*565 FILLER_19_181
*566 FILLER_19_193
*567 FILLER_19_205
*568 FILLER_19_217
*569 FILLER_19_223
*570 FILLER_19_225
*571 FILLER_19_237
*572 FILLER_19_249
*573 FILLER_19_261
*574 FILLER_19_27
*575 FILLER_19_273
*576 FILLER_19_279
*577 FILLER_19_281
*578 FILLER_19_293
*579 FILLER_19_3
*580 FILLER_19_305
*581 FILLER_19_317
*582 FILLER_19_329
*583 FILLER_19_335
*584 FILLER_19_337
*585 FILLER_19_349
*586 FILLER_19_361
*587 FILLER_19_373
*588 FILLER_19_385
*589 FILLER_19_39
*590 FILLER_19_391
*591 FILLER_19_393
*592 FILLER_19_405
*593 FILLER_19_51
*594 FILLER_19_55
*595 FILLER_19_57
*596 FILLER_19_69
*597 FILLER_19_81
*598 FILLER_19_93
*599 FILLER_1_107
*600 FILLER_1_111
*601 FILLER_1_113
*602 FILLER_1_125
*603 FILLER_1_137
*604 FILLER_1_149
*605 FILLER_1_15
*606 FILLER_1_161
*607 FILLER_1_167
*608 FILLER_1_169
*609 FILLER_1_181
*610 FILLER_1_193
*611 FILLER_1_205
*612 FILLER_1_217
*613 FILLER_1_223
*614 FILLER_1_225
*615 FILLER_1_237
*616 FILLER_1_249
*617 FILLER_1_261
*618 FILLER_1_27
*619 FILLER_1_273
*620 FILLER_1_279
*621 FILLER_1_281
*622 FILLER_1_293
*623 FILLER_1_3
*624 FILLER_1_305
*625 FILLER_1_317
*626 FILLER_1_329
*627 FILLER_1_335
*628 FILLER_1_337
*629 FILLER_1_349
*630 FILLER_1_361
*631 FILLER_1_373
*632 FILLER_1_385
*633 FILLER_1_39
*634 FILLER_1_391
*635 FILLER_1_393
*636 FILLER_1_405
*637 FILLER_1_51
*638 FILLER_1_55
*639 FILLER_1_57
*640 FILLER_1_69
*641 FILLER_1_81
*642 FILLER_1_93
*643 FILLER_20_109
*644 FILLER_20_121
*645 FILLER_20_133
*646 FILLER_20_139
*647 FILLER_20_141
*648 FILLER_20_15
*649 FILLER_20_153
*650 FILLER_20_165
*651 FILLER_20_177
*652 FILLER_20_189
*653 FILLER_20_195
*654 FILLER_20_197
*655 FILLER_20_209
*656 FILLER_20_221
*657 FILLER_20_233
*658 FILLER_20_245
*659 FILLER_20_251
*660 FILLER_20_253
*661 FILLER_20_265
*662 FILLER_20_27
*663 FILLER_20_277
*664 FILLER_20_289
*665 FILLER_20_29
*666 FILLER_20_3
*667 FILLER_20_301
*668 FILLER_20_307
*669 FILLER_20_309
*670 FILLER_20_321
*671 FILLER_20_333
*672 FILLER_20_345
*673 FILLER_20_357
*674 FILLER_20_363
*675 FILLER_20_365
*676 FILLER_20_377
*677 FILLER_20_389
*678 FILLER_20_401
*679 FILLER_20_41
*680 FILLER_20_53
*681 FILLER_20_65
*682 FILLER_20_77
*683 FILLER_20_83
*684 FILLER_20_85
*685 FILLER_20_97
*686 FILLER_21_105
*687 FILLER_21_111
*688 FILLER_21_113
*689 FILLER_21_125
*690 FILLER_21_137
*691 FILLER_21_149
*692 FILLER_21_15
*693 FILLER_21_161
*694 FILLER_21_167
*695 FILLER_21_169
*696 FILLER_21_181
*697 FILLER_21_193
*698 FILLER_21_205
*699 FILLER_21_217
*700 FILLER_21_223
*701 FILLER_21_225
*702 FILLER_21_237
*703 FILLER_21_249
*704 FILLER_21_261
*705 FILLER_21_27
*706 FILLER_21_273
*707 FILLER_21_279
*708 FILLER_21_281
*709 FILLER_21_293
*710 FILLER_21_3
*711 FILLER_21_305
*712 FILLER_21_317
*713 FILLER_21_329
*714 FILLER_21_335
*715 FILLER_21_337
*716 FILLER_21_349
*717 FILLER_21_361
*718 FILLER_21_373
*719 FILLER_21_385
*720 FILLER_21_39
*721 FILLER_21_391
*722 FILLER_21_393
*723 FILLER_21_405
*724 FILLER_21_51
*725 FILLER_21_55
*726 FILLER_21_57
*727 FILLER_21_69
*728 FILLER_21_81
*729 FILLER_21_93
*730 FILLER_22_109
*731 FILLER_22_121
*732 FILLER_22_133
*733 FILLER_22_139
*734 FILLER_22_141
*735 FILLER_22_15
*736 FILLER_22_153
*737 FILLER_22_165
*738 FILLER_22_177
*739 FILLER_22_189
*740 FILLER_22_195
*741 FILLER_22_197
*742 FILLER_22_209
*743 FILLER_22_221
*744 FILLER_22_233
*745 FILLER_22_245
*746 FILLER_22_251
*747 FILLER_22_253
*748 FILLER_22_265
*749 FILLER_22_27
*750 FILLER_22_277
*751 FILLER_22_289
*752 FILLER_22_29
*753 FILLER_22_3
*754 FILLER_22_301
*755 FILLER_22_307
*756 FILLER_22_309
*757 FILLER_22_321
*758 FILLER_22_333
*759 FILLER_22_345
*760 FILLER_22_357
*761 FILLER_22_363
*762 FILLER_22_365
*763 FILLER_22_377
*764 FILLER_22_389
*765 FILLER_22_401
*766 FILLER_22_41
*767 FILLER_22_53
*768 FILLER_22_65
*769 FILLER_22_77
*770 FILLER_22_83
*771 FILLER_22_85
*772 FILLER_22_97
*773 FILLER_23_105
*774 FILLER_23_111
*775 FILLER_23_113
*776 FILLER_23_125
*777 FILLER_23_137
*778 FILLER_23_149
*779 FILLER_23_15
*780 FILLER_23_161
*781 FILLER_23_167
*782 FILLER_23_169
*783 FILLER_23_181
*784 FILLER_23_193
*785 FILLER_23_205
*786 FILLER_23_217
*787 FILLER_23_223
*788 FILLER_23_225
*789 FILLER_23_237
*790 FILLER_23_249
*791 FILLER_23_261
*792 FILLER_23_27
*793 FILLER_23_273
*794 FILLER_23_279
*795 FILLER_23_281
*796 FILLER_23_293
*797 FILLER_23_3
*798 FILLER_23_305
*799 FILLER_23_317
*800 FILLER_23_329
*801 FILLER_23_335
*802 FILLER_23_337
*803 FILLER_23_349
*804 FILLER_23_361
*805 FILLER_23_373
*806 FILLER_23_385
*807 FILLER_23_39
*808 FILLER_23_391
*809 FILLER_23_393
*810 FILLER_23_405
*811 FILLER_23_51
*812 FILLER_23_55
*813 FILLER_23_57
*814 FILLER_23_69
*815 FILLER_23_81
*816 FILLER_23_93
*817 FILLER_24_109
*818 FILLER_24_121
*819 FILLER_24_133
*820 FILLER_24_139
*821 FILLER_24_141
*822 FILLER_24_15
*823 FILLER_24_153
*824 FILLER_24_165
*825 FILLER_24_177
*826 FILLER_24_189
*827 FILLER_24_195
*828 FILLER_24_197
*829 FILLER_24_209
*830 FILLER_24_221
*831 FILLER_24_233
*832 FILLER_24_245
*833 FILLER_24_251
*834 FILLER_24_253
*835 FILLER_24_265
*836 FILLER_24_27
*837 FILLER_24_277
*838 FILLER_24_289
*839 FILLER_24_29
*840 FILLER_24_3
*841 FILLER_24_301
*842 FILLER_24_307
*843 FILLER_24_309
*844 FILLER_24_321
*845 FILLER_24_333
*846 FILLER_24_345
*847 FILLER_24_357
*848 FILLER_24_363
*849 FILLER_24_365
*850 FILLER_24_377
*851 FILLER_24_389
*852 FILLER_24_401
*853 FILLER_24_41
*854 FILLER_24_53
*855 FILLER_24_65
*856 FILLER_24_77
*857 FILLER_24_83
*858 FILLER_24_85
*859 FILLER_24_97
*860 FILLER_25_105
*861 FILLER_25_111
*862 FILLER_25_113
*863 FILLER_25_125
*864 FILLER_25_137
*865 FILLER_25_149
*866 FILLER_25_15
*867 FILLER_25_161
*868 FILLER_25_167
*869 FILLER_25_169
*870 FILLER_25_181
*871 FILLER_25_193
*872 FILLER_25_205
*873 FILLER_25_217
*874 FILLER_25_223
*875 FILLER_25_225
*876 FILLER_25_237
*877 FILLER_25_249
*878 FILLER_25_261
*879 FILLER_25_27
*880 FILLER_25_273
*881 FILLER_25_279
*882 FILLER_25_281
*883 FILLER_25_293
*884 FILLER_25_3
*885 FILLER_25_305
*886 FILLER_25_317
*887 FILLER_25_329
*888 FILLER_25_335
*889 FILLER_25_337
*890 FILLER_25_349
*891 FILLER_25_361
*892 FILLER_25_373
*893 FILLER_25_385
*894 FILLER_25_39
*895 FILLER_25_391
*896 FILLER_25_393
*897 FILLER_25_405
*898 FILLER_25_51
*899 FILLER_25_55
*900 FILLER_25_57
*901 FILLER_25_69
*902 FILLER_25_81
*903 FILLER_25_93
*904 FILLER_25_99
*905 FILLER_26_114
*906 FILLER_26_126
*907 FILLER_26_138
*908 FILLER_26_141
*909 FILLER_26_15
*910 FILLER_26_153
*911 FILLER_26_165
*912 FILLER_26_177
*913 FILLER_26_189
*914 FILLER_26_195
*915 FILLER_26_197
*916 FILLER_26_209
*917 FILLER_26_221
*918 FILLER_26_233
*919 FILLER_26_245
*920 FILLER_26_251
*921 FILLER_26_253
*922 FILLER_26_265
*923 FILLER_26_27
*924 FILLER_26_277
*925 FILLER_26_289
*926 FILLER_26_29
*927 FILLER_26_3
*928 FILLER_26_301
*929 FILLER_26_307
*930 FILLER_26_309
*931 FILLER_26_321
*932 FILLER_26_333
*933 FILLER_26_345
*934 FILLER_26_357
*935 FILLER_26_363
*936 FILLER_26_365
*937 FILLER_26_377
*938 FILLER_26_389
*939 FILLER_26_401
*940 FILLER_26_41
*941 FILLER_26_53
*942 FILLER_26_65
*943 FILLER_26_77
*944 FILLER_26_83
*945 FILLER_26_85
*946 FILLER_27_103
*947 FILLER_27_111
*948 FILLER_27_113
*949 FILLER_27_125
*950 FILLER_27_137
*951 FILLER_27_149
*952 FILLER_27_15
*953 FILLER_27_161
*954 FILLER_27_167
*955 FILLER_27_169
*956 FILLER_27_181
*957 FILLER_27_193
*958 FILLER_27_205
*959 FILLER_27_213
*960 FILLER_27_217
*961 FILLER_27_223
*962 FILLER_27_225
*963 FILLER_27_237
*964 FILLER_27_251
*965 FILLER_27_263
*966 FILLER_27_27
*967 FILLER_27_275
*968 FILLER_27_279
*969 FILLER_27_281
*970 FILLER_27_293
*971 FILLER_27_3
*972 FILLER_27_305
*973 FILLER_27_317
*974 FILLER_27_329
*975 FILLER_27_335
*976 FILLER_27_337
*977 FILLER_27_349
*978 FILLER_27_361
*979 FILLER_27_373
*980 FILLER_27_385
*981 FILLER_27_39
*982 FILLER_27_391
*983 FILLER_27_393
*984 FILLER_27_405
*985 FILLER_27_51
*986 FILLER_27_55
*987 FILLER_27_57
*988 FILLER_27_69
*989 FILLER_27_96
*990 FILLER_28_109
*991 FILLER_28_121
*992 FILLER_28_133
*993 FILLER_28_139
*994 FILLER_28_141
*995 FILLER_28_15
*996 FILLER_28_153
*997 FILLER_28_165
*998 FILLER_28_177
*999 FILLER_28_189
*1000 FILLER_28_195
*1001 FILLER_28_197
*1002 FILLER_28_201
*1003 FILLER_28_204
*1004 FILLER_28_211
*1005 FILLER_28_221
*1006 FILLER_28_227
*1007 FILLER_28_234
*1008 FILLER_28_243
*1009 FILLER_28_249
*1010 FILLER_28_253
*1011 FILLER_28_258
*1012 FILLER_28_27
*1013 FILLER_28_270
*1014 FILLER_28_282
*1015 FILLER_28_29
*1016 FILLER_28_294
*1017 FILLER_28_3
*1018 FILLER_28_306
*1019 FILLER_28_309
*1020 FILLER_28_321
*1021 FILLER_28_333
*1022 FILLER_28_345
*1023 FILLER_28_357
*1024 FILLER_28_363
*1025 FILLER_28_365
*1026 FILLER_28_377
*1027 FILLER_28_389
*1028 FILLER_28_401
*1029 FILLER_28_41
*1030 FILLER_28_53
*1031 FILLER_28_65
*1032 FILLER_28_77
*1033 FILLER_28_81
*1034 FILLER_28_85
*1035 FILLER_28_97
*1036 FILLER_29_101
*1037 FILLER_29_109
*1038 FILLER_29_113
*1039 FILLER_29_125
*1040 FILLER_29_137
*1041 FILLER_29_149
*1042 FILLER_29_15
*1043 FILLER_29_161
*1044 FILLER_29_167
*1045 FILLER_29_169
*1046 FILLER_29_181
*1047 FILLER_29_193
*1048 FILLER_29_215
*1049 FILLER_29_219
*1050 FILLER_29_222
*1051 FILLER_29_225
*1052 FILLER_29_249
*1053 FILLER_29_27
*1054 FILLER_29_278
*1055 FILLER_29_281
*1056 FILLER_29_285
*1057 FILLER_29_297
*1058 FILLER_29_3
*1059 FILLER_29_309
*1060 FILLER_29_321
*1061 FILLER_29_333
*1062 FILLER_29_337
*1063 FILLER_29_349
*1064 FILLER_29_361
*1065 FILLER_29_373
*1066 FILLER_29_385
*1067 FILLER_29_39
*1068 FILLER_29_391
*1069 FILLER_29_393
*1070 FILLER_29_405
*1071 FILLER_29_51
*1072 FILLER_29_55
*1073 FILLER_29_57
*1074 FILLER_29_69
*1075 FILLER_29_73
*1076 FILLER_29_95
*1077 FILLER_2_109
*1078 FILLER_2_121
*1079 FILLER_2_133
*1080 FILLER_2_139
*1081 FILLER_2_141
*1082 FILLER_2_15
*1083 FILLER_2_153
*1084 FILLER_2_165
*1085 FILLER_2_177
*1086 FILLER_2_189
*1087 FILLER_2_195
*1088 FILLER_2_197
*1089 FILLER_2_209
*1090 FILLER_2_221
*1091 FILLER_2_233
*1092 FILLER_2_245
*1093 FILLER_2_251
*1094 FILLER_2_253
*1095 FILLER_2_265
*1096 FILLER_2_27
*1097 FILLER_2_277
*1098 FILLER_2_289
*1099 FILLER_2_29
*1100 FILLER_2_3
*1101 FILLER_2_301
*1102 FILLER_2_307
*1103 FILLER_2_309
*1104 FILLER_2_321
*1105 FILLER_2_333
*1106 FILLER_2_345
*1107 FILLER_2_357
*1108 FILLER_2_363
*1109 FILLER_2_365
*1110 FILLER_2_377
*1111 FILLER_2_389
*1112 FILLER_2_401
*1113 FILLER_2_41
*1114 FILLER_2_53
*1115 FILLER_2_65
*1116 FILLER_2_77
*1117 FILLER_2_83
*1118 FILLER_2_85
*1119 FILLER_2_97
*1120 FILLER_30_109
*1121 FILLER_30_121
*1122 FILLER_30_133
*1123 FILLER_30_139
*1124 FILLER_30_141
*1125 FILLER_30_15
*1126 FILLER_30_153
*1127 FILLER_30_165
*1128 FILLER_30_177
*1129 FILLER_30_189
*1130 FILLER_30_195
*1131 FILLER_30_197
*1132 FILLER_30_223
*1133 FILLER_30_250
*1134 FILLER_30_253
*1135 FILLER_30_27
*1136 FILLER_30_276
*1137 FILLER_30_282
*1138 FILLER_30_29
*1139 FILLER_30_294
*1140 FILLER_30_3
*1141 FILLER_30_306
*1142 FILLER_30_309
*1143 FILLER_30_321
*1144 FILLER_30_333
*1145 FILLER_30_345
*1146 FILLER_30_357
*1147 FILLER_30_363
*1148 FILLER_30_365
*1149 FILLER_30_377
*1150 FILLER_30_389
*1151 FILLER_30_401
*1152 FILLER_30_41
*1153 FILLER_30_53
*1154 FILLER_30_65
*1155 FILLER_30_69
*1156 FILLER_30_73
*1157 FILLER_30_80
*1158 FILLER_30_85
*1159 FILLER_30_97
*1160 FILLER_31_105
*1161 FILLER_31_111
*1162 FILLER_31_113
*1163 FILLER_31_125
*1164 FILLER_31_137
*1165 FILLER_31_149
*1166 FILLER_31_15
*1167 FILLER_31_161
*1168 FILLER_31_167
*1169 FILLER_31_169
*1170 FILLER_31_181
*1171 FILLER_31_193
*1172 FILLER_31_201
*1173 FILLER_31_222
*1174 FILLER_31_225
*1175 FILLER_31_248
*1176 FILLER_31_255
*1177 FILLER_31_262
*1178 FILLER_31_27
*1179 FILLER_31_274
*1180 FILLER_31_281
*1181 FILLER_31_293
*1182 FILLER_31_3
*1183 FILLER_31_305
*1184 FILLER_31_317
*1185 FILLER_31_329
*1186 FILLER_31_335
*1187 FILLER_31_337
*1188 FILLER_31_349
*1189 FILLER_31_361
*1190 FILLER_31_373
*1191 FILLER_31_385
*1192 FILLER_31_39
*1193 FILLER_31_391
*1194 FILLER_31_393
*1195 FILLER_31_405
*1196 FILLER_31_51
*1197 FILLER_31_55
*1198 FILLER_31_57
*1199 FILLER_31_69
*1200 FILLER_31_81
*1201 FILLER_31_93
*1202 FILLER_32_109
*1203 FILLER_32_121
*1204 FILLER_32_133
*1205 FILLER_32_139
*1206 FILLER_32_141
*1207 FILLER_32_15
*1208 FILLER_32_153
*1209 FILLER_32_165
*1210 FILLER_32_177
*1211 FILLER_32_189
*1212 FILLER_32_195
*1213 FILLER_32_197
*1214 FILLER_32_222
*1215 FILLER_32_229
*1216 FILLER_32_236
*1217 FILLER_32_243
*1218 FILLER_32_249
*1219 FILLER_32_253
*1220 FILLER_32_257
*1221 FILLER_32_269
*1222 FILLER_32_27
*1223 FILLER_32_281
*1224 FILLER_32_29
*1225 FILLER_32_293
*1226 FILLER_32_3
*1227 FILLER_32_305
*1228 FILLER_32_309
*1229 FILLER_32_321
*1230 FILLER_32_333
*1231 FILLER_32_345
*1232 FILLER_32_357
*1233 FILLER_32_363
*1234 FILLER_32_365
*1235 FILLER_32_377
*1236 FILLER_32_383
*1237 FILLER_32_405
*1238 FILLER_32_41
*1239 FILLER_32_53
*1240 FILLER_32_65
*1241 FILLER_32_77
*1242 FILLER_32_83
*1243 FILLER_32_85
*1244 FILLER_32_97
*1245 FILLER_33_105
*1246 FILLER_33_111
*1247 FILLER_33_113
*1248 FILLER_33_125
*1249 FILLER_33_137
*1250 FILLER_33_149
*1251 FILLER_33_15
*1252 FILLER_33_161
*1253 FILLER_33_167
*1254 FILLER_33_169
*1255 FILLER_33_181
*1256 FILLER_33_193
*1257 FILLER_33_205
*1258 FILLER_33_212
*1259 FILLER_33_219
*1260 FILLER_33_223
*1261 FILLER_33_225
*1262 FILLER_33_247
*1263 FILLER_33_253
*1264 FILLER_33_265
*1265 FILLER_33_27
*1266 FILLER_33_277
*1267 FILLER_33_281
*1268 FILLER_33_293
*1269 FILLER_33_3
*1270 FILLER_33_305
*1271 FILLER_33_317
*1272 FILLER_33_329
*1273 FILLER_33_335
*1274 FILLER_33_337
*1275 FILLER_33_349
*1276 FILLER_33_361
*1277 FILLER_33_373
*1278 FILLER_33_381
*1279 FILLER_33_387
*1280 FILLER_33_39
*1281 FILLER_33_391
*1282 FILLER_33_393
*1283 FILLER_33_405
*1284 FILLER_33_51
*1285 FILLER_33_55
*1286 FILLER_33_57
*1287 FILLER_33_69
*1288 FILLER_33_81
*1289 FILLER_33_93
*1290 FILLER_34_109
*1291 FILLER_34_121
*1292 FILLER_34_133
*1293 FILLER_34_139
*1294 FILLER_34_141
*1295 FILLER_34_15
*1296 FILLER_34_153
*1297 FILLER_34_165
*1298 FILLER_34_177
*1299 FILLER_34_189
*1300 FILLER_34_195
*1301 FILLER_34_197
*1302 FILLER_34_209
*1303 FILLER_34_214
*1304 FILLER_34_218
*1305 FILLER_34_221
*1306 FILLER_34_227
*1307 FILLER_34_235
*1308 FILLER_34_241
*1309 FILLER_34_247
*1310 FILLER_34_251
*1311 FILLER_34_253
*1312 FILLER_34_259
*1313 FILLER_34_265
*1314 FILLER_34_27
*1315 FILLER_34_277
*1316 FILLER_34_289
*1317 FILLER_34_29
*1318 FILLER_34_3
*1319 FILLER_34_301
*1320 FILLER_34_307
*1321 FILLER_34_309
*1322 FILLER_34_321
*1323 FILLER_34_333
*1324 FILLER_34_345
*1325 FILLER_34_357
*1326 FILLER_34_363
*1327 FILLER_34_365
*1328 FILLER_34_380
*1329 FILLER_34_405
*1330 FILLER_34_41
*1331 FILLER_34_53
*1332 FILLER_34_65
*1333 FILLER_34_77
*1334 FILLER_34_83
*1335 FILLER_34_85
*1336 FILLER_34_97
*1337 FILLER_35_105
*1338 FILLER_35_111
*1339 FILLER_35_113
*1340 FILLER_35_125
*1341 FILLER_35_137
*1342 FILLER_35_149
*1343 FILLER_35_15
*1344 FILLER_35_161
*1345 FILLER_35_167
*1346 FILLER_35_169
*1347 FILLER_35_181
*1348 FILLER_35_193
*1349 FILLER_35_205
*1350 FILLER_35_217
*1351 FILLER_35_223
*1352 FILLER_35_225
*1353 FILLER_35_237
*1354 FILLER_35_265
*1355 FILLER_35_27
*1356 FILLER_35_271
*1357 FILLER_35_279
*1358 FILLER_35_281
*1359 FILLER_35_293
*1360 FILLER_35_3
*1361 FILLER_35_305
*1362 FILLER_35_317
*1363 FILLER_35_329
*1364 FILLER_35_335
*1365 FILLER_35_337
*1366 FILLER_35_349
*1367 FILLER_35_361
*1368 FILLER_35_373
*1369 FILLER_35_385
*1370 FILLER_35_39
*1371 FILLER_35_390
*1372 FILLER_35_393
*1373 FILLER_35_405
*1374 FILLER_35_51
*1375 FILLER_35_55
*1376 FILLER_35_57
*1377 FILLER_35_69
*1378 FILLER_35_81
*1379 FILLER_35_93
*1380 FILLER_36_109
*1381 FILLER_36_121
*1382 FILLER_36_133
*1383 FILLER_36_139
*1384 FILLER_36_14
*1385 FILLER_36_141
*1386 FILLER_36_153
*1387 FILLER_36_165
*1388 FILLER_36_177
*1389 FILLER_36_189
*1390 FILLER_36_195
*1391 FILLER_36_197
*1392 FILLER_36_209
*1393 FILLER_36_221
*1394 FILLER_36_233
*1395 FILLER_36_245
*1396 FILLER_36_251
*1397 FILLER_36_253
*1398 FILLER_36_26
*1399 FILLER_36_265
*1400 FILLER_36_273
*1401 FILLER_36_284
*1402 FILLER_36_29
*1403 FILLER_36_296
*1404 FILLER_36_3
*1405 FILLER_36_309
*1406 FILLER_36_321
*1407 FILLER_36_333
*1408 FILLER_36_345
*1409 FILLER_36_357
*1410 FILLER_36_363
*1411 FILLER_36_365
*1412 FILLER_36_377
*1413 FILLER_36_389
*1414 FILLER_36_401
*1415 FILLER_36_41
*1416 FILLER_36_53
*1417 FILLER_36_65
*1418 FILLER_36_77
*1419 FILLER_36_8
*1420 FILLER_36_83
*1421 FILLER_36_85
*1422 FILLER_36_97
*1423 FILLER_37_105
*1424 FILLER_37_111
*1425 FILLER_37_113
*1426 FILLER_37_125
*1427 FILLER_37_137
*1428 FILLER_37_149
*1429 FILLER_37_15
*1430 FILLER_37_161
*1431 FILLER_37_167
*1432 FILLER_37_169
*1433 FILLER_37_181
*1434 FILLER_37_193
*1435 FILLER_37_205
*1436 FILLER_37_217
*1437 FILLER_37_223
*1438 FILLER_37_225
*1439 FILLER_37_237
*1440 FILLER_37_249
*1441 FILLER_37_261
*1442 FILLER_37_267
*1443 FILLER_37_27
*1444 FILLER_37_271
*1445 FILLER_37_278
*1446 FILLER_37_281
*1447 FILLER_37_3
*1448 FILLER_37_304
*1449 FILLER_37_310
*1450 FILLER_37_322
*1451 FILLER_37_334
*1452 FILLER_37_337
*1453 FILLER_37_349
*1454 FILLER_37_361
*1455 FILLER_37_373
*1456 FILLER_37_385
*1457 FILLER_37_39
*1458 FILLER_37_391
*1459 FILLER_37_393
*1460 FILLER_37_405
*1461 FILLER_37_51
*1462 FILLER_37_55
*1463 FILLER_37_57
*1464 FILLER_37_69
*1465 FILLER_37_81
*1466 FILLER_37_93
*1467 FILLER_38_109
*1468 FILLER_38_121
*1469 FILLER_38_133
*1470 FILLER_38_139
*1471 FILLER_38_141
*1472 FILLER_38_15
*1473 FILLER_38_153
*1474 FILLER_38_165
*1475 FILLER_38_177
*1476 FILLER_38_189
*1477 FILLER_38_195
*1478 FILLER_38_197
*1479 FILLER_38_209
*1480 FILLER_38_221
*1481 FILLER_38_233
*1482 FILLER_38_245
*1483 FILLER_38_251
*1484 FILLER_38_253
*1485 FILLER_38_265
*1486 FILLER_38_27
*1487 FILLER_38_286
*1488 FILLER_38_29
*1489 FILLER_38_293
*1490 FILLER_38_299
*1491 FILLER_38_3
*1492 FILLER_38_307
*1493 FILLER_38_309
*1494 FILLER_38_321
*1495 FILLER_38_333
*1496 FILLER_38_345
*1497 FILLER_38_357
*1498 FILLER_38_363
*1499 FILLER_38_365
*1500 FILLER_38_377
*1501 FILLER_38_389
*1502 FILLER_38_401
*1503 FILLER_38_41
*1504 FILLER_38_53
*1505 FILLER_38_65
*1506 FILLER_38_77
*1507 FILLER_38_83
*1508 FILLER_38_85
*1509 FILLER_38_97
*1510 FILLER_39_105
*1511 FILLER_39_111
*1512 FILLER_39_113
*1513 FILLER_39_125
*1514 FILLER_39_137
*1515 FILLER_39_149
*1516 FILLER_39_15
*1517 FILLER_39_161
*1518 FILLER_39_167
*1519 FILLER_39_169
*1520 FILLER_39_181
*1521 FILLER_39_193
*1522 FILLER_39_205
*1523 FILLER_39_217
*1524 FILLER_39_223
*1525 FILLER_39_225
*1526 FILLER_39_237
*1527 FILLER_39_249
*1528 FILLER_39_261
*1529 FILLER_39_27
*1530 FILLER_39_273
*1531 FILLER_39_279
*1532 FILLER_39_281
*1533 FILLER_39_3
*1534 FILLER_39_306
*1535 FILLER_39_312
*1536 FILLER_39_324
*1537 FILLER_39_337
*1538 FILLER_39_349
*1539 FILLER_39_361
*1540 FILLER_39_373
*1541 FILLER_39_385
*1542 FILLER_39_39
*1543 FILLER_39_391
*1544 FILLER_39_393
*1545 FILLER_39_398
*1546 FILLER_39_405
*1547 FILLER_39_51