*SPEF "ieee 1481-1999"
*DESIGN "grid_io_right"
*DATE "11:11:11 Fri 11 11, 1111"
*VENDOR "OpenRCX"
*PROGRAM "Parallel Extraction"
*VERSION "1.0"
*DESIGN_FLOW "NAME_SCOPE LOCAL" "PIN_CAP NONE"
*DIVIDER /
*DELIMITER :
*BUS_DELIMITER []
*T_UNIT 1 NS
*C_UNIT 1 PF
*R_UNIT 1 OHM
*L_UNIT 1 HENRY

*NAME_MAP
*1 ccff_head
*2 ccff_tail
*3 gfpga_pad_GPIO_PAD[0]
*4 gfpga_pad_GPIO_PAD[1]
*5 gfpga_pad_GPIO_PAD[2]
*6 gfpga_pad_GPIO_PAD[3]
*7 gfpga_pad_GPIO_PAD[4]
*8 gfpga_pad_GPIO_PAD[5]
*9 gfpga_pad_GPIO_PAD[6]
*10 gfpga_pad_GPIO_PAD[7]
*11 left_width_0_height_0_subtile_0__pin_inpad_0_
*12 left_width_0_height_0_subtile_0__pin_outpad_0_
*13 left_width_0_height_0_subtile_1__pin_inpad_0_
*14 left_width_0_height_0_subtile_1__pin_outpad_0_
*15 left_width_0_height_0_subtile_2__pin_inpad_0_
*16 left_width_0_height_0_subtile_2__pin_outpad_0_
*17 left_width_0_height_0_subtile_3__pin_inpad_0_
*18 left_width_0_height_0_subtile_3__pin_outpad_0_
*19 left_width_0_height_0_subtile_4__pin_inpad_0_
*20 left_width_0_height_0_subtile_4__pin_outpad_0_
*21 left_width_0_height_0_subtile_5__pin_inpad_0_
*22 left_width_0_height_0_subtile_5__pin_outpad_0_
*23 left_width_0_height_0_subtile_6__pin_inpad_0_
*24 left_width_0_height_0_subtile_6__pin_outpad_0_
*25 left_width_0_height_0_subtile_7__pin_inpad_0_
*26 left_width_0_height_0_subtile_7__pin_outpad_0_
*27 pReset
*28 prog_clk
*31 _00_
*32 _01_
*33 _02_
*34 _03_
*35 _04_
*36 _05_
*37 _06_
*38 _07_
*39 _08_
*40 _09_
*41 _10_
*42 _11_
*43 _12_
*44 _13_
*45 _14_
*46 _15_
*47 _16_
*48 _17_
*49 _18_
*50 _19_
*51 _20_
*52 _21_
*53 _22_
*54 _23_
*55 _24_
*56 _25_
*57 _26_
*58 _27_
*59 _28_
*60 _29_
*61 _30_
*62 _31_
*63 logical_tile_io_mode_io__0\.ccff_tail
*64 logical_tile_io_mode_io__1\.ccff_tail
*65 logical_tile_io_mode_io__2\.ccff_tail
*66 logical_tile_io_mode_io__3\.ccff_tail
*67 logical_tile_io_mode_io__4\.ccff_tail
*68 logical_tile_io_mode_io__5\.ccff_tail
*69 logical_tile_io_mode_io__6\.ccff_tail
*70 net1
*71 net10
*72 net11
*73 net2
*74 net3
*75 net4
*76 net5
*77 net6
*78 net7
*79 net8
*80 net9
*81 ANTENNA__33__A
*82 ANTENNA__34__A
*83 ANTENNA__56__A
*84 ANTENNA__57__A
*85 ANTENNA__58__A
*86 ANTENNA__59__A
*87 ANTENNA__60__A
*88 ANTENNA__61__A
*89 ANTENNA__62__A
*90 ANTENNA__63__A
*91 ANTENNA__64__CLK
*92 ANTENNA__65__CLK
*93 ANTENNA__66__CLK
*94 ANTENNA__67__CLK
*95 ANTENNA__68__CLK
*96 ANTENNA__69__CLK
*97 ANTENNA__70__CLK
*98 ANTENNA__71__CLK
*99 ANTENNA__72__A
*100 ANTENNA__74__A
*101 ANTENNA__75__A
*102 ANTENNA__76__A
*103 ANTENNA__77__A
*104 ANTENNA__78__A
*105 ANTENNA__79__A
*106 ANTENNA__81__A
*107 ANTENNA__84__A
*108 ANTENNA__86__A
*109 ANTENNA_input10_A
*110 ANTENNA_input1_A
*111 ANTENNA_input2_A
*112 ANTENNA_input3_A
*113 ANTENNA_input4_A
*114 ANTENNA_input5_A
*115 ANTENNA_input6_A
*116 ANTENNA_input7_A
*117 ANTENNA_input8_A
*118 ANTENNA_input9_A
*119 ANTENNA_output11_A
*120 FILLER_0_105
*121 FILLER_0_111
*122 FILLER_0_113
*123 FILLER_0_125
*124 FILLER_0_137
*125 FILLER_0_141
*126 FILLER_0_15
*127 FILLER_0_153
*128 FILLER_0_160
*129 FILLER_0_166
*130 FILLER_0_169
*131 FILLER_0_181
*132 FILLER_0_193
*133 FILLER_0_197
*134 FILLER_0_205
*135 FILLER_0_209
*136 FILLER_0_219
*137 FILLER_0_223
*138 FILLER_0_225
*139 FILLER_0_237
*140 FILLER_0_249
*141 FILLER_0_253
*142 FILLER_0_265
*143 FILLER_0_27
*144 FILLER_0_277
*145 FILLER_0_281
*146 FILLER_0_29
*147 FILLER_0_293
*148 FILLER_0_3
*149 FILLER_0_305
*150 FILLER_0_309
*151 FILLER_0_321
*152 FILLER_0_333
*153 FILLER_0_337
*154 FILLER_0_349
*155 FILLER_0_361
*156 FILLER_0_365
*157 FILLER_0_377
*158 FILLER_0_389
*159 FILLER_0_393
*160 FILLER_0_405
*161 FILLER_0_41
*162 FILLER_0_53
*163 FILLER_0_57
*164 FILLER_0_69
*165 FILLER_0_81
*166 FILLER_0_85
*167 FILLER_0_97
*168 FILLER_10_109
*169 FILLER_10_121
*170 FILLER_10_133
*171 FILLER_10_139
*172 FILLER_10_141
*173 FILLER_10_15
*174 FILLER_10_153
*175 FILLER_10_165
*176 FILLER_10_177
*177 FILLER_10_189
*178 FILLER_10_195
*179 FILLER_10_197
*180 FILLER_10_209
*181 FILLER_10_221
*182 FILLER_10_233
*183 FILLER_10_245
*184 FILLER_10_251
*185 FILLER_10_253
*186 FILLER_10_265
*187 FILLER_10_27
*188 FILLER_10_277
*189 FILLER_10_289
*190 FILLER_10_29
*191 FILLER_10_3
*192 FILLER_10_301
*193 FILLER_10_307
*194 FILLER_10_309
*195 FILLER_10_321
*196 FILLER_10_333
*197 FILLER_10_345
*198 FILLER_10_357
*199 FILLER_10_363
*200 FILLER_10_365
*201 FILLER_10_377
*202 FILLER_10_389
*203 FILLER_10_401
*204 FILLER_10_41
*205 FILLER_10_53
*206 FILLER_10_65
*207 FILLER_10_77
*208 FILLER_10_83
*209 FILLER_10_85
*210 FILLER_10_97
*211 FILLER_11_105
*212 FILLER_11_111
*213 FILLER_11_113
*214 FILLER_11_125
*215 FILLER_11_137
*216 FILLER_11_149
*217 FILLER_11_15
*218 FILLER_11_161
*219 FILLER_11_167
*220 FILLER_11_169
*221 FILLER_11_181
*222 FILLER_11_193
*223 FILLER_11_205
*224 FILLER_11_217
*225 FILLER_11_223
*226 FILLER_11_225
*227 FILLER_11_237
*228 FILLER_11_249
*229 FILLER_11_261
*230 FILLER_11_27
*231 FILLER_11_273
*232 FILLER_11_279
*233 FILLER_11_281
*234 FILLER_11_293
*235 FILLER_11_3
*236 FILLER_11_305
*237 FILLER_11_317
*238 FILLER_11_329
*239 FILLER_11_335
*240 FILLER_11_337
*241 FILLER_11_349
*242 FILLER_11_361
*243 FILLER_11_373
*244 FILLER_11_385
*245 FILLER_11_39
*246 FILLER_11_391
*247 FILLER_11_393
*248 FILLER_11_405
*249 FILLER_11_51
*250 FILLER_11_55
*251 FILLER_11_57
*252 FILLER_11_69
*253 FILLER_11_81
*254 FILLER_11_93
*255 FILLER_12_109
*256 FILLER_12_121
*257 FILLER_12_133
*258 FILLER_12_139
*259 FILLER_12_141
*260 FILLER_12_15
*261 FILLER_12_153
*262 FILLER_12_165
*263 FILLER_12_177
*264 FILLER_12_189
*265 FILLER_12_195
*266 FILLER_12_197
*267 FILLER_12_209
*268 FILLER_12_221
*269 FILLER_12_233
*270 FILLER_12_245
*271 FILLER_12_251
*272 FILLER_12_253
*273 FILLER_12_265
*274 FILLER_12_27
*275 FILLER_12_277
*276 FILLER_12_289
*277 FILLER_12_29
*278 FILLER_12_3
*279 FILLER_12_301
*280 FILLER_12_307
*281 FILLER_12_309
*282 FILLER_12_321
*283 FILLER_12_333
*284 FILLER_12_345
*285 FILLER_12_357
*286 FILLER_12_363
*287 FILLER_12_365
*288 FILLER_12_377
*289 FILLER_12_389
*290 FILLER_12_401
*291 FILLER_12_41
*292 FILLER_12_53
*293 FILLER_12_65
*294 FILLER_12_77
*295 FILLER_12_83
*296 FILLER_12_85
*297 FILLER_12_97
*298 FILLER_13_105
*299 FILLER_13_111
*300 FILLER_13_113
*301 FILLER_13_125
*302 FILLER_13_137
*303 FILLER_13_149
*304 FILLER_13_15
*305 FILLER_13_161
*306 FILLER_13_167
*307 FILLER_13_169
*308 FILLER_13_181
*309 FILLER_13_193
*310 FILLER_13_205
*311 FILLER_13_217
*312 FILLER_13_223
*313 FILLER_13_225
*314 FILLER_13_237
*315 FILLER_13_249
*316 FILLER_13_261
*317 FILLER_13_27
*318 FILLER_13_273
*319 FILLER_13_279
*320 FILLER_13_281
*321 FILLER_13_293
*322 FILLER_13_3
*323 FILLER_13_305
*324 FILLER_13_317
*325 FILLER_13_329
*326 FILLER_13_335
*327 FILLER_13_337
*328 FILLER_13_349
*329 FILLER_13_361
*330 FILLER_13_373
*331 FILLER_13_385
*332 FILLER_13_39
*333 FILLER_13_391
*334 FILLER_13_393
*335 FILLER_13_405
*336 FILLER_13_51
*337 FILLER_13_55
*338 FILLER_13_57
*339 FILLER_13_69
*340 FILLER_13_81
*341 FILLER_13_93
*342 FILLER_14_109
*343 FILLER_14_121
*344 FILLER_14_133
*345 FILLER_14_139
*346 FILLER_14_141
*347 FILLER_14_15
*348 FILLER_14_153
*349 FILLER_14_165
*350 FILLER_14_177
*351 FILLER_14_189
*352 FILLER_14_195
*353 FILLER_14_197
*354 FILLER_14_209
*355 FILLER_14_221
*356 FILLER_14_233
*357 FILLER_14_245
*358 FILLER_14_251
*359 FILLER_14_253
*360 FILLER_14_265
*361 FILLER_14_27
*362 FILLER_14_277
*363 FILLER_14_289
*364 FILLER_14_29
*365 FILLER_14_3
*366 FILLER_14_301
*367 FILLER_14_307
*368 FILLER_14_309
*369 FILLER_14_321
*370 FILLER_14_333
*371 FILLER_14_345
*372 FILLER_14_357
*373 FILLER_14_363
*374 FILLER_14_365
*375 FILLER_14_377
*376 FILLER_14_389
*377 FILLER_14_401
*378 FILLER_14_41
*379 FILLER_14_53
*380 FILLER_14_65
*381 FILLER_14_77
*382 FILLER_14_83
*383 FILLER_14_85
*384 FILLER_14_97
*385 FILLER_15_105
*386 FILLER_15_111
*387 FILLER_15_113
*388 FILLER_15_125
*389 FILLER_15_137
*390 FILLER_15_149
*391 FILLER_15_15
*392 FILLER_15_161
*393 FILLER_15_167
*394 FILLER_15_169
*395 FILLER_15_181
*396 FILLER_15_193
*397 FILLER_15_205
*398 FILLER_15_217
*399 FILLER_15_223
*400 FILLER_15_225
*401 FILLER_15_237
*402 FILLER_15_264
*403 FILLER_15_27
*404 FILLER_15_276
*405 FILLER_15_281
*406 FILLER_15_293
*407 FILLER_15_3
*408 FILLER_15_305
*409 FILLER_15_317
*410 FILLER_15_329
*411 FILLER_15_335
*412 FILLER_15_337
*413 FILLER_15_349
*414 FILLER_15_361
*415 FILLER_15_373
*416 FILLER_15_385
*417 FILLER_15_39
*418 FILLER_15_391
*419 FILLER_15_393
*420 FILLER_15_405
*421 FILLER_15_51
*422 FILLER_15_55
*423 FILLER_15_57
*424 FILLER_15_69
*425 FILLER_15_81
*426 FILLER_15_93
*427 FILLER_16_109
*428 FILLER_16_121
*429 FILLER_16_133
*430 FILLER_16_139
*431 FILLER_16_141
*432 FILLER_16_15
*433 FILLER_16_153
*434 FILLER_16_165
*435 FILLER_16_177
*436 FILLER_16_189
*437 FILLER_16_195
*438 FILLER_16_197
*439 FILLER_16_209
*440 FILLER_16_221
*441 FILLER_16_233
*442 FILLER_16_245
*443 FILLER_16_251
*444 FILLER_16_253
*445 FILLER_16_265
*446 FILLER_16_27
*447 FILLER_16_277
*448 FILLER_16_289
*449 FILLER_16_29
*450 FILLER_16_3
*451 FILLER_16_301
*452 FILLER_16_307
*453 FILLER_16_309
*454 FILLER_16_321
*455 FILLER_16_333
*456 FILLER_16_345
*457 FILLER_16_357
*458 FILLER_16_363
*459 FILLER_16_365
*460 FILLER_16_377
*461 FILLER_16_389
*462 FILLER_16_401
*463 FILLER_16_41
*464 FILLER_16_53
*465 FILLER_16_65
*466 FILLER_16_77
*467 FILLER_16_83
*468 FILLER_16_85
*469 FILLER_16_97
*470 FILLER_17_105
*471 FILLER_17_111
*472 FILLER_17_113
*473 FILLER_17_125
*474 FILLER_17_137
*475 FILLER_17_149
*476 FILLER_17_15
*477 FILLER_17_161
*478 FILLER_17_167
*479 FILLER_17_169
*480 FILLER_17_181
*481 FILLER_17_193
*482 FILLER_17_205
*483 FILLER_17_217
*484 FILLER_17_223
*485 FILLER_17_225
*486 FILLER_17_254
*487 FILLER_17_266
*488 FILLER_17_27
*489 FILLER_17_278
*490 FILLER_17_281
*491 FILLER_17_293
*492 FILLER_17_3
*493 FILLER_17_305
*494 FILLER_17_317
*495 FILLER_17_329
*496 FILLER_17_335
*497 FILLER_17_337
*498 FILLER_17_349
*499 FILLER_17_361
*500 FILLER_17_373
*501 FILLER_17_385
*502 FILLER_17_39
*503 FILLER_17_391
*504 FILLER_17_393
*505 FILLER_17_405
*506 FILLER_17_51
*507 FILLER_17_55
*508 FILLER_17_57
*509 FILLER_17_69
*510 FILLER_17_81
*511 FILLER_17_93
*512 FILLER_18_109
*513 FILLER_18_121
*514 FILLER_18_133
*515 FILLER_18_139
*516 FILLER_18_141
*517 FILLER_18_15
*518 FILLER_18_153
*519 FILLER_18_165
*520 FILLER_18_177
*521 FILLER_18_189
*522 FILLER_18_195
*523 FILLER_18_197
*524 FILLER_18_209
*525 FILLER_18_221
*526 FILLER_18_233
*527 FILLER_18_237
*528 FILLER_18_244
*529 FILLER_18_253
*530 FILLER_18_265
*531 FILLER_18_27
*532 FILLER_18_277
*533 FILLER_18_289
*534 FILLER_18_29
*535 FILLER_18_3
*536 FILLER_18_301
*537 FILLER_18_307
*538 FILLER_18_309
*539 FILLER_18_321
*540 FILLER_18_333
*541 FILLER_18_345
*542 FILLER_18_357
*543 FILLER_18_363
*544 FILLER_18_365
*545 FILLER_18_377
*546 FILLER_18_389
*547 FILLER_18_401
*548 FILLER_18_41
*549 FILLER_18_53
*550 FILLER_18_65
*551 FILLER_18_77
*552 FILLER_18_83
*553 FILLER_18_85
*554 FILLER_18_97
*555 FILLER_19_105
*556 FILLER_19_111
*557 FILLER_19_113
*558 FILLER_19_125
*559 FILLER_19_137
*560 FILLER_19_149
*561 FILLER_19_15
*562 FILLER_19_161
*563 FILLER_19_167
*564 FILLER_19_169
*565 FILLER_19_181
*566 FILLER_19_193
*567 FILLER_19_205
*568 FILLER_19_217
*569 FILLER_19_223
*570 FILLER_19_225
*571 FILLER_19_237
*572 FILLER_19_243
*573 FILLER_19_255
*574 FILLER_19_267
*575 FILLER_19_27
*576 FILLER_19_279
*577 FILLER_19_281
*578 FILLER_19_293
*579 FILLER_19_3
*580 FILLER_19_305
*581 FILLER_19_317
*582 FILLER_19_329
*583 FILLER_19_335
*584 FILLER_19_337
*585 FILLER_19_349
*586 FILLER_19_361
*587 FILLER_19_373
*588 FILLER_19_385
*589 FILLER_19_39
*590 FILLER_19_391
*591 FILLER_19_393
*592 FILLER_19_405
*593 FILLER_19_51
*594 FILLER_19_55
*595 FILLER_19_57
*596 FILLER_19_69
*597 FILLER_19_81
*598 FILLER_19_93
*599 FILLER_1_107
*600 FILLER_1_111
*601 FILLER_1_113
*602 FILLER_1_125
*603 FILLER_1_137
*604 FILLER_1_149
*605 FILLER_1_15
*606 FILLER_1_161
*607 FILLER_1_167
*608 FILLER_1_169
*609 FILLER_1_181
*610 FILLER_1_193
*611 FILLER_1_205
*612 FILLER_1_217
*613 FILLER_1_223
*614 FILLER_1_225
*615 FILLER_1_237
*616 FILLER_1_249
*617 FILLER_1_261
*618 FILLER_1_27
*619 FILLER_1_273
*620 FILLER_1_279
*621 FILLER_1_281
*622 FILLER_1_293
*623 FILLER_1_3
*624 FILLER_1_305
*625 FILLER_1_317
*626 FILLER_1_329
*627 FILLER_1_335
*628 FILLER_1_337
*629 FILLER_1_349
*630 FILLER_1_361
*631 FILLER_1_373
*632 FILLER_1_385
*633 FILLER_1_39
*634 FILLER_1_391
*635 FILLER_1_393
*636 FILLER_1_401
*637 FILLER_1_405
*638 FILLER_1_51
*639 FILLER_1_55
*640 FILLER_1_57
*641 FILLER_1_69
*642 FILLER_1_81
*643 FILLER_1_93
*644 FILLER_20_109
*645 FILLER_20_121
*646 FILLER_20_133
*647 FILLER_20_139
*648 FILLER_20_141
*649 FILLER_20_15
*650 FILLER_20_153
*651 FILLER_20_165
*652 FILLER_20_177
*653 FILLER_20_189
*654 FILLER_20_195
*655 FILLER_20_197
*656 FILLER_20_209
*657 FILLER_20_221
*658 FILLER_20_233
*659 FILLER_20_245
*660 FILLER_20_251
*661 FILLER_20_253
*662 FILLER_20_265
*663 FILLER_20_27
*664 FILLER_20_277
*665 FILLER_20_289
*666 FILLER_20_29
*667 FILLER_20_3
*668 FILLER_20_301
*669 FILLER_20_307
*670 FILLER_20_309
*671 FILLER_20_321
*672 FILLER_20_333
*673 FILLER_20_345
*674 FILLER_20_357
*675 FILLER_20_363
*676 FILLER_20_365
*677 FILLER_20_377
*678 FILLER_20_389
*679 FILLER_20_401
*680 FILLER_20_41
*681 FILLER_20_53
*682 FILLER_20_65
*683 FILLER_20_77
*684 FILLER_20_83
*685 FILLER_20_85
*686 FILLER_20_97
*687 FILLER_21_105
*688 FILLER_21_111
*689 FILLER_21_113
*690 FILLER_21_125
*691 FILLER_21_137
*692 FILLER_21_149
*693 FILLER_21_15
*694 FILLER_21_161
*695 FILLER_21_167
*696 FILLER_21_169
*697 FILLER_21_181
*698 FILLER_21_193
*699 FILLER_21_205
*700 FILLER_21_217
*701 FILLER_21_223
*702 FILLER_21_225
*703 FILLER_21_237
*704 FILLER_21_249
*705 FILLER_21_261
*706 FILLER_21_27
*707 FILLER_21_273
*708 FILLER_21_279
*709 FILLER_21_281
*710 FILLER_21_293
*711 FILLER_21_3
*712 FILLER_21_305
*713 FILLER_21_317
*714 FILLER_21_329
*715 FILLER_21_335
*716 FILLER_21_337
*717 FILLER_21_349
*718 FILLER_21_361
*719 FILLER_21_373
*720 FILLER_21_385
*721 FILLER_21_39
*722 FILLER_21_391
*723 FILLER_21_393
*724 FILLER_21_405
*725 FILLER_21_51
*726 FILLER_21_55
*727 FILLER_21_57
*728 FILLER_21_69
*729 FILLER_21_81
*730 FILLER_21_93
*731 FILLER_22_109
*732 FILLER_22_121
*733 FILLER_22_133
*734 FILLER_22_139
*735 FILLER_22_141
*736 FILLER_22_15
*737 FILLER_22_153
*738 FILLER_22_165
*739 FILLER_22_177
*740 FILLER_22_189
*741 FILLER_22_195
*742 FILLER_22_197
*743 FILLER_22_209
*744 FILLER_22_221
*745 FILLER_22_233
*746 FILLER_22_245
*747 FILLER_22_251
*748 FILLER_22_253
*749 FILLER_22_258
*750 FILLER_22_27
*751 FILLER_22_270
*752 FILLER_22_282
*753 FILLER_22_29
*754 FILLER_22_294
*755 FILLER_22_3
*756 FILLER_22_306
*757 FILLER_22_309
*758 FILLER_22_321
*759 FILLER_22_333
*760 FILLER_22_345
*761 FILLER_22_357
*762 FILLER_22_363
*763 FILLER_22_365
*764 FILLER_22_377
*765 FILLER_22_389
*766 FILLER_22_401
*767 FILLER_22_41
*768 FILLER_22_53
*769 FILLER_22_65
*770 FILLER_22_77
*771 FILLER_22_83
*772 FILLER_22_85
*773 FILLER_22_97
*774 FILLER_23_108
*775 FILLER_23_113
*776 FILLER_23_125
*777 FILLER_23_137
*778 FILLER_23_149
*779 FILLER_23_15
*780 FILLER_23_161
*781 FILLER_23_167
*782 FILLER_23_169
*783 FILLER_23_181
*784 FILLER_23_193
*785 FILLER_23_205
*786 FILLER_23_217
*787 FILLER_23_223
*788 FILLER_23_225
*789 FILLER_23_239
*790 FILLER_23_246
*791 FILLER_23_252
*792 FILLER_23_27
*793 FILLER_23_277
*794 FILLER_23_281
*795 FILLER_23_285
*796 FILLER_23_297
*797 FILLER_23_3
*798 FILLER_23_309
*799 FILLER_23_321
*800 FILLER_23_333
*801 FILLER_23_337
*802 FILLER_23_349
*803 FILLER_23_361
*804 FILLER_23_373
*805 FILLER_23_385
*806 FILLER_23_39
*807 FILLER_23_391
*808 FILLER_23_393
*809 FILLER_23_405
*810 FILLER_23_51
*811 FILLER_23_55
*812 FILLER_23_57
*813 FILLER_23_69
*814 FILLER_23_96
*815 FILLER_24_102
*816 FILLER_24_114
*817 FILLER_24_126
*818 FILLER_24_138
*819 FILLER_24_141
*820 FILLER_24_15
*821 FILLER_24_153
*822 FILLER_24_165
*823 FILLER_24_177
*824 FILLER_24_189
*825 FILLER_24_195
*826 FILLER_24_197
*827 FILLER_24_205
*828 FILLER_24_209
*829 FILLER_24_233
*830 FILLER_24_241
*831 FILLER_24_245
*832 FILLER_24_251
*833 FILLER_24_253
*834 FILLER_24_27
*835 FILLER_24_276
*836 FILLER_24_282
*837 FILLER_24_288
*838 FILLER_24_29
*839 FILLER_24_3
*840 FILLER_24_300
*841 FILLER_24_309
*842 FILLER_24_321
*843 FILLER_24_333
*844 FILLER_24_345
*845 FILLER_24_357
*846 FILLER_24_363
*847 FILLER_24_365
*848 FILLER_24_377
*849 FILLER_24_389
*850 FILLER_24_401
*851 FILLER_24_41
*852 FILLER_24_53
*853 FILLER_24_65
*854 FILLER_24_77
*855 FILLER_24_81
*856 FILLER_24_85
*857 FILLER_24_90
*858 FILLER_25_102
*859 FILLER_25_110
*860 FILLER_25_113
*861 FILLER_25_125
*862 FILLER_25_137
*863 FILLER_25_149
*864 FILLER_25_15
*865 FILLER_25_161
*866 FILLER_25_167
*867 FILLER_25_169
*868 FILLER_25_181
*869 FILLER_25_193
*870 FILLER_25_205
*871 FILLER_25_217
*872 FILLER_25_222
*873 FILLER_25_225
*874 FILLER_25_230
*875 FILLER_25_239
*876 FILLER_25_264
*877 FILLER_25_27
*878 FILLER_25_271
*879 FILLER_25_278
*880 FILLER_25_281
*881 FILLER_25_3
*882 FILLER_25_304
*883 FILLER_25_316
*884 FILLER_25_328
*885 FILLER_25_337
*886 FILLER_25_349
*887 FILLER_25_361
*888 FILLER_25_373
*889 FILLER_25_385
*890 FILLER_25_39
*891 FILLER_25_391
*892 FILLER_25_393
*893 FILLER_25_405
*894 FILLER_25_51
*895 FILLER_25_55
*896 FILLER_25_57
*897 FILLER_25_69
*898 FILLER_25_96
*899 FILLER_26_102
*900 FILLER_26_114
*901 FILLER_26_126
*902 FILLER_26_138
*903 FILLER_26_141
*904 FILLER_26_15
*905 FILLER_26_153
*906 FILLER_26_165
*907 FILLER_26_177
*908 FILLER_26_189
*909 FILLER_26_195
*910 FILLER_26_197
*911 FILLER_26_205
*912 FILLER_26_210
*913 FILLER_26_234
*914 FILLER_26_243
*915 FILLER_26_250
*916 FILLER_26_253
*917 FILLER_26_257
*918 FILLER_26_27
*919 FILLER_26_279
*920 FILLER_26_285
*921 FILLER_26_29
*922 FILLER_26_297
*923 FILLER_26_3
*924 FILLER_26_305
*925 FILLER_26_309
*926 FILLER_26_321
*927 FILLER_26_333
*928 FILLER_26_345
*929 FILLER_26_357
*930 FILLER_26_363
*931 FILLER_26_365
*932 FILLER_26_377
*933 FILLER_26_389
*934 FILLER_26_401
*935 FILLER_26_41
*936 FILLER_26_53
*937 FILLER_26_65
*938 FILLER_26_77
*939 FILLER_26_83
*940 FILLER_26_85
*941 FILLER_26_90
*942 FILLER_27_105
*943 FILLER_27_111
*944 FILLER_27_113
*945 FILLER_27_125
*946 FILLER_27_137
*947 FILLER_27_149
*948 FILLER_27_15
*949 FILLER_27_161
*950 FILLER_27_167
*951 FILLER_27_169
*952 FILLER_27_181
*953 FILLER_27_193
*954 FILLER_27_205
*955 FILLER_27_213
*956 FILLER_27_216
*957 FILLER_27_222
*958 FILLER_27_225
*959 FILLER_27_230
*960 FILLER_27_239
*961 FILLER_27_264
*962 FILLER_27_27
*963 FILLER_27_271
*964 FILLER_27_277
*965 FILLER_27_281
*966 FILLER_27_293
*967 FILLER_27_3
*968 FILLER_27_305
*969 FILLER_27_317
*970 FILLER_27_329
*971 FILLER_27_335
*972 FILLER_27_337
*973 FILLER_27_349
*974 FILLER_27_361
*975 FILLER_27_373
*976 FILLER_27_385
*977 FILLER_27_39
*978 FILLER_27_391
*979 FILLER_27_393
*980 FILLER_27_405
*981 FILLER_27_51
*982 FILLER_27_55
*983 FILLER_27_57
*984 FILLER_27_69
*985 FILLER_27_81
*986 FILLER_27_93
*987 FILLER_28_109
*988 FILLER_28_121
*989 FILLER_28_133
*990 FILLER_28_139
*991 FILLER_28_141
*992 FILLER_28_15
*993 FILLER_28_153
*994 FILLER_28_165
*995 FILLER_28_177
*996 FILLER_28_189
*997 FILLER_28_195
*998 FILLER_28_197
*999 FILLER_28_209
*1000 FILLER_28_221
*1001 FILLER_28_226
*1002 FILLER_28_250
*1003 FILLER_28_253
*1004 FILLER_28_27
*1005 FILLER_28_275
*1006 FILLER_28_287
*1007 FILLER_28_29
*1008 FILLER_28_299
*1009 FILLER_28_3
*1010 FILLER_28_307
*1011 FILLER_28_309
*1012 FILLER_28_321
*1013 FILLER_28_333
*1014 FILLER_28_345
*1015 FILLER_28_357
*1016 FILLER_28_363
*1017 FILLER_28_365
*1018 FILLER_28_377
*1019 FILLER_28_389
*1020 FILLER_28_401
*1021 FILLER_28_41
*1022 FILLER_28_53
*1023 FILLER_28_65
*1024 FILLER_28_77
*1025 FILLER_28_83
*1026 FILLER_28_85
*1027 FILLER_28_97
*1028 FILLER_29_105
*1029 FILLER_29_111
*1030 FILLER_29_113
*1031 FILLER_29_125
*1032 FILLER_29_137
*1033 FILLER_29_149
*1034 FILLER_29_15
*1035 FILLER_29_161
*1036 FILLER_29_167
*1037 FILLER_29_169
*1038 FILLER_29_181
*1039 FILLER_29_193
*1040 FILLER_29_205
*1041 FILLER_29_217
*1042 FILLER_29_223
*1043 FILLER_29_225
*1044 FILLER_29_229
*1045 FILLER_29_250
*1046 FILLER_29_257
*1047 FILLER_29_263
*1048 FILLER_29_27
*1049 FILLER_29_275
*1050 FILLER_29_279
*1051 FILLER_29_281
*1052 FILLER_29_293
*1053 FILLER_29_3
*1054 FILLER_29_305
*1055 FILLER_29_317
*1056 FILLER_29_329
*1057 FILLER_29_335
*1058 FILLER_29_337
*1059 FILLER_29_349
*1060 FILLER_29_361
*1061 FILLER_29_373
*1062 FILLER_29_385
*1063 FILLER_29_39
*1064 FILLER_29_391
*1065 FILLER_29_393
*1066 FILLER_29_405
*1067 FILLER_29_51
*1068 FILLER_29_55
*1069 FILLER_29_57
*1070 FILLER_29_69
*1071 FILLER_29_81
*1072 FILLER_29_93
*1073 FILLER_2_109
*1074 FILLER_2_121
*1075 FILLER_2_133
*1076 FILLER_2_139
*1077 FILLER_2_141
*1078 FILLER_2_15
*1079 FILLER_2_153
*1080 FILLER_2_165
*1081 FILLER_2_177
*1082 FILLER_2_189
*1083 FILLER_2_195
*1084 FILLER_2_197
*1085 FILLER_2_209
*1086 FILLER_2_221
*1087 FILLER_2_233
*1088 FILLER_2_245
*1089 FILLER_2_251
*1090 FILLER_2_253
*1091 FILLER_2_265
*1092 FILLER_2_27
*1093 FILLER_2_277
*1094 FILLER_2_289
*1095 FILLER_2_29
*1096 FILLER_2_3
*1097 FILLER_2_301
*1098 FILLER_2_307
*1099 FILLER_2_309
*1100 FILLER_2_321
*1101 FILLER_2_333
*1102 FILLER_2_345
*1103 FILLER_2_357
*1104 FILLER_2_363
*1105 FILLER_2_365
*1106 FILLER_2_377
*1107 FILLER_2_389
*1108 FILLER_2_401
*1109 FILLER_2_41
*1110 FILLER_2_53
*1111 FILLER_2_65
*1112 FILLER_2_77
*1113 FILLER_2_83
*1114 FILLER_2_85
*1115 FILLER_2_97
*1116 FILLER_30_109
*1117 FILLER_30_121
*1118 FILLER_30_133
*1119 FILLER_30_139
*1120 FILLER_30_141
*1121 FILLER_30_15
*1122 FILLER_30_153
*1123 FILLER_30_165
*1124 FILLER_30_177
*1125 FILLER_30_189
*1126 FILLER_30_195
*1127 FILLER_30_197
*1128 FILLER_30_209
*1129 FILLER_30_221
*1130 FILLER_30_227
*1131 FILLER_30_230
*1132 FILLER_30_238
*1133 FILLER_30_243
*1134 FILLER_30_249
*1135 FILLER_30_253
*1136 FILLER_30_265
*1137 FILLER_30_27
*1138 FILLER_30_277
*1139 FILLER_30_289
*1140 FILLER_30_29
*1141 FILLER_30_3
*1142 FILLER_30_301
*1143 FILLER_30_307
*1144 FILLER_30_309
*1145 FILLER_30_321
*1146 FILLER_30_333
*1147 FILLER_30_345
*1148 FILLER_30_357
*1149 FILLER_30_363
*1150 FILLER_30_365
*1151 FILLER_30_377
*1152 FILLER_30_389
*1153 FILLER_30_401
*1154 FILLER_30_41
*1155 FILLER_30_53
*1156 FILLER_30_65
*1157 FILLER_30_77
*1158 FILLER_30_83
*1159 FILLER_30_85
*1160 FILLER_30_97
*1161 FILLER_31_105
*1162 FILLER_31_111
*1163 FILLER_31_113
*1164 FILLER_31_125
*1165 FILLER_31_137
*1166 FILLER_31_149
*1167 FILLER_31_15
*1168 FILLER_31_161
*1169 FILLER_31_167
*1170 FILLER_31_169
*1171 FILLER_31_181
*1172 FILLER_31_193
*1173 FILLER_31_205
*1174 FILLER_31_217
*1175 FILLER_31_223
*1176 FILLER_31_225
*1177 FILLER_31_237
*1178 FILLER_31_249
*1179 FILLER_31_261
*1180 FILLER_31_27
*1181 FILLER_31_273
*1182 FILLER_31_279
*1183 FILLER_31_281
*1184 FILLER_31_293
*1185 FILLER_31_3
*1186 FILLER_31_305
*1187 FILLER_31_317
*1188 FILLER_31_329
*1189 FILLER_31_335
*1190 FILLER_31_337
*1191 FILLER_31_349
*1192 FILLER_31_361
*1193 FILLER_31_373
*1194 FILLER_31_385
*1195 FILLER_31_39
*1196 FILLER_31_391
*1197 FILLER_31_393
*1198 FILLER_31_405
*1199 FILLER_31_51
*1200 FILLER_31_55
*1201 FILLER_31_57
*1202 FILLER_31_69
*1203 FILLER_31_81
*1204 FILLER_31_93
*1205 FILLER_32_109
*1206 FILLER_32_121
*1207 FILLER_32_133
*1208 FILLER_32_139
*1209 FILLER_32_141
*1210 FILLER_32_15
*1211 FILLER_32_153
*1212 FILLER_32_165
*1213 FILLER_32_177
*1214 FILLER_32_189
*1215 FILLER_32_195
*1216 FILLER_32_197
*1217 FILLER_32_209
*1218 FILLER_32_213
*1219 FILLER_32_238
*1220 FILLER_32_250
*1221 FILLER_32_253
*1222 FILLER_32_265
*1223 FILLER_32_27
*1224 FILLER_32_277
*1225 FILLER_32_289
*1226 FILLER_32_29
*1227 FILLER_32_3
*1228 FILLER_32_301
*1229 FILLER_32_307
*1230 FILLER_32_309
*1231 FILLER_32_321
*1232 FILLER_32_333
*1233 FILLER_32_345
*1234 FILLER_32_357
*1235 FILLER_32_363
*1236 FILLER_32_365
*1237 FILLER_32_377
*1238 FILLER_32_389
*1239 FILLER_32_401
*1240 FILLER_32_41
*1241 FILLER_32_53
*1242 FILLER_32_65
*1243 FILLER_32_77
*1244 FILLER_32_83
*1245 FILLER_32_85
*1246 FILLER_32_97
*1247 FILLER_33_105
*1248 FILLER_33_111
*1249 FILLER_33_113
*1250 FILLER_33_125
*1251 FILLER_33_137
*1252 FILLER_33_149
*1253 FILLER_33_15
*1254 FILLER_33_161
*1255 FILLER_33_167
*1256 FILLER_33_169
*1257 FILLER_33_176
*1258 FILLER_33_188
*1259 FILLER_33_200
*1260 FILLER_33_212
*1261 FILLER_33_225
*1262 FILLER_33_230
*1263 FILLER_33_236
*1264 FILLER_33_244
*1265 FILLER_33_248
*1266 FILLER_33_254
*1267 FILLER_33_266
*1268 FILLER_33_27
*1269 FILLER_33_278
*1270 FILLER_33_281
*1271 FILLER_33_293
*1272 FILLER_33_3
*1273 FILLER_33_305
*1274 FILLER_33_317
*1275 FILLER_33_329
*1276 FILLER_33_335
*1277 FILLER_33_337
*1278 FILLER_33_349
*1279 FILLER_33_361
*1280 FILLER_33_373
*1281 FILLER_33_385
*1282 FILLER_33_39
*1283 FILLER_33_391
*1284 FILLER_33_393
*1285 FILLER_33_405
*1286 FILLER_33_51
*1287 FILLER_33_55
*1288 FILLER_33_57
*1289 FILLER_33_69
*1290 FILLER_33_81
*1291 FILLER_33_93
*1292 FILLER_34_105
*1293 FILLER_34_117
*1294 FILLER_34_129
*1295 FILLER_34_137
*1296 FILLER_34_141
*1297 FILLER_34_15
*1298 FILLER_34_153
*1299 FILLER_34_165
*1300 FILLER_34_169
*1301 FILLER_34_194
*1302 FILLER_34_197
*1303 FILLER_34_209
*1304 FILLER_34_221
*1305 FILLER_34_226
*1306 FILLER_34_250
*1307 FILLER_34_253
*1308 FILLER_34_258
*1309 FILLER_34_264
*1310 FILLER_34_27
*1311 FILLER_34_276
*1312 FILLER_34_288
*1313 FILLER_34_29
*1314 FILLER_34_3
*1315 FILLER_34_300
*1316 FILLER_34_309
*1317 FILLER_34_321
*1318 FILLER_34_333
*1319 FILLER_34_345
*1320 FILLER_34_357
*1321 FILLER_34_363
*1322 FILLER_34_365
*1323 FILLER_34_377
*1324 FILLER_34_389
*1325 FILLER_34_401
*1326 FILLER_34_41
*1327 FILLER_34_53
*1328 FILLER_34_65
*1329 FILLER_34_77
*1330 FILLER_34_83
*1331 FILLER_34_85
*1332 FILLER_34_93
*1333 FILLER_34_99
*1334 FILLER_35_110
*1335 FILLER_35_113
*1336 FILLER_35_117
*1337 FILLER_35_129
*1338 FILLER_35_141
*1339 FILLER_35_15
*1340 FILLER_35_153
*1341 FILLER_35_165
*1342 FILLER_35_169
*1343 FILLER_35_173
*1344 FILLER_35_185
*1345 FILLER_35_197
*1346 FILLER_35_209
*1347 FILLER_35_221
*1348 FILLER_35_225
*1349 FILLER_35_233
*1350 FILLER_35_257
*1351 FILLER_35_269
*1352 FILLER_35_27
*1353 FILLER_35_277
*1354 FILLER_35_281
*1355 FILLER_35_293
*1356 FILLER_35_3
*1357 FILLER_35_305
*1358 FILLER_35_317
*1359 FILLER_35_329
*1360 FILLER_35_335
*1361 FILLER_35_337
*1362 FILLER_35_349
*1363 FILLER_35_361
*1364 FILLER_35_373
*1365 FILLER_35_385
*1366 FILLER_35_39
*1367 FILLER_35_391
*1368 FILLER_35_393
*1369 FILLER_35_405
*1370 FILLER_35_51
*1371 FILLER_35_55
*1372 FILLER_35_57
*1373 FILLER_35_69
*1374 FILLER_35_81
*1375 FILLER_36_109
*1376 FILLER_36_121
*1377 FILLER_36_133
*1378 FILLER_36_139
*1379 FILLER_36_141
*1380 FILLER_36_15
*1381 FILLER_36_153
*1382 FILLER_36_165
*1383 FILLER_36_177
*1384 FILLER_36_189
*1385 FILLER_36_195
*1386 FILLER_36_197
*1387 FILLER_36_209
*1388 FILLER_36_221
*1389 FILLER_36_233
*1390 FILLER_36_245
*1391 FILLER_36_251
*1392 FILLER_36_253
*1393 FILLER_36_265
*1394 FILLER_36_27
*1395 FILLER_36_277
*1396 FILLER_36_289
*1397 FILLER_36_29
*1398 FILLER_36_3
*1399 FILLER_36_301
*1400 FILLER_36_307
*1401 FILLER_36_309
*1402 FILLER_36_321
*1403 FILLER_36_333
*1404 FILLER_36_345
*1405 FILLER_36_357
*1406 FILLER_36_363
*1407 FILLER_36_365
*1408 FILLER_36_377
*1409 FILLER_36_389
*1410 FILLER_36_401
*1411 FILLER_36_41
*1412 FILLER_36_53
*1413 FILLER_36_65
*1414 FILLER_36_77
*1415 FILLER_36_83
*1416 FILLER_36_85
*1417 FILLER_36_97
*1418 FILLER_37_105
*1419 FILLER_37_111
*1420 FILLER_37_113
*1421 FILLER_37_125
*1422 FILLER_37_137
*1423 FILLER_37_149
*1424 FILLER_37_15
*1425 FILLER_37_161
*1426 FILLER_37_167
*1427 FILLER_37_169
*1428 FILLER_37_181
*1429 FILLER_37_193
*1430 FILLER_37_205
*1431 FILLER_37_217
*1432 FILLER_37_223
*1433 FILLER_37_225
*1434 FILLER_37_237
*1435 FILLER_37_249
*1436 FILLER_37_261
*1437 FILLER_37_27
*1438 FILLER_37_273
*1439 FILLER_37_279
*1440 FILLER_37_281
*1441 FILLER_37_293
*1442 FILLER_37_3
*1443 FILLER_37_305
*1444 FILLER_37_317
*1445 FILLER_37_329
*1446 FILLER_37_335
*1447 FILLER_37_337
*1448 FILLER_37_349
*1449 FILLER_37_361
*1450 FILLER_37_373
*1451 FILLER_37_385
*1452 FILLER_37_39
*1453 FILLER_37_391
*1454 FILLER_37_393
*1455 FILLER_37_405
*1456 FILLER_37_51
*1457 FILLER_37_55
*1458 FILLER_37_57
*1459 FILLER_37_69
*1460 FILLER_37_81
*1461 FILLER_37_93
*1462 FILLER_38_109
*1463 FILLER_38_121
*1464 FILLER_38_133
*1465 FILLER_38_139
*1466 FILLER_38_141
*1467 FILLER_38_15
*1468 FILLER_38_153
*1469 FILLER_38_165
*1470 FILLER_38_177
*1471 FILLER_38_189
*1472 FILLER_38_195
*1473 FILLER_38_197
*1474 FILLER_38_209
*1475 FILLER_38_221
*1476 FILLER_38_233
*1477 FILLER_38_245
*1478 FILLER_38_251
*1479 FILLER_38_253
*1480 FILLER_38_265
*1481 FILLER_38_27
*1482 FILLER_38_277
*1483 FILLER_38_289
*1484 FILLER_38_29
*1485 FILLER_38_3
*1486 FILLER_38_301
*1487 FILLER_38_307
*1488 FILLER_38_309
*1489 FILLER_38_321
*1490 FILLER_38_333
*1491 FILLER_38_345
*1492 FILLER_38_357
*1493 FILLER_38_363
*1494 FILLER_38_365
*1495 FILLER_38_377
*1496 FILLER_38_389
*1497 FILLER_38_401
*1498 FILLER_38_41
*1499 FILLER_38_53
*1500 FILLER_38_65
*1501 FILLER_38_77
*1502 FILLER_38_83
*1503 FILLER_38_85
*1504 FILLER_38_97
*1505 FILLER_39_105
*1506 FILLER_39_111
*1507 FILLER_39_113
*1508 FILLER_39_125
*1509 FILLER_39_137
*1510 FILLER_39_149
*1511 FILLER_39_15
*1512 FILLER_39_161
*1513 FILLER_39_167
*1514 FILLER_39_169
*1515 FILLER_39_181
*1516 FILLER_39_193
*1517 FILLER_39_205
*1518 FILLER_39_217
*1519 FILLER_39_223
*1520 FILLER_39_225
*1521 FILLER_39_237
*1522 FILLER_39_249
*1523 FILLER_39_261
*1524 FILLER_39_27
*1525 FILLER_39_273
*1526 FILLER_39_279
*1527 FILLER_39_281
*1528 FILLER_39_293
*1529 FILLER_39_3
*1530 FILLER_39_305
*1531 FILLER_39_317
*1532 FILLER_39_329
*1533 FILLER_39_335
*1534 FILLER_39_337
*1535 FILLER_39_349
*1536 FILLER_39_361
*1537 FILLER_39_373
*1538 FILLER_39_385
*1539 FILLER_39_39
*1540 FILLER_39_391
*1541 FILLER_39_393
*1542 FILLER_39_398
*1543 FILLER_39_405
*1544 FILLER_39_51
*1545 FILLER_39_55
*1546 FILLER_39_57