*SPEF "ieee 1481-1999"
*DESIGN "sb_0__1_"
*DATE "11:11:11 Fri 11 11, 1111"
*VENDOR "OpenRCX"
*PROGRAM "Parallel Extraction"
*VERSION "1.0"
*DESIGN_FLOW "NAME_SCOPE LOCAL" "PIN_CAP NONE"
*DIVIDER /
*DELIMITER :
*BUS_DELIMITER []
*T_UNIT 1 NS
*C_UNIT 1 PF
*R_UNIT 1 OHM
*L_UNIT 1 HENRY

*NAME_MAP
*1 bottom_left_grid_right_width_0_height_0_subtile_0__pin_inpad_0_
*2 bottom_left_grid_right_width_0_height_0_subtile_1__pin_inpad_0_
*3 bottom_left_grid_right_width_0_height_0_subtile_2__pin_inpad_0_
*4 bottom_left_grid_right_width_0_height_0_subtile_3__pin_inpad_0_
*5 bottom_left_grid_right_width_0_height_0_subtile_4__pin_inpad_0_
*6 bottom_left_grid_right_width_0_height_0_subtile_5__pin_inpad_0_
*7 bottom_left_grid_right_width_0_height_0_subtile_6__pin_inpad_0_
*8 bottom_left_grid_right_width_0_height_0_subtile_7__pin_inpad_0_
*9 bottom_right_grid_left_width_0_height_0_subtile_0__pin_O_3_
*10 bottom_right_grid_left_width_0_height_0_subtile_0__pin_O_7_
*11 ccff_head
*12 ccff_tail
*13 chanx_right_in[0]
*14 chanx_right_in[10]
*15 chanx_right_in[11]
*16 chanx_right_in[12]
*17 chanx_right_in[13]
*18 chanx_right_in[14]
*19 chanx_right_in[15]
*20 chanx_right_in[16]
*21 chanx_right_in[17]
*22 chanx_right_in[18]
*23 chanx_right_in[1]
*24 chanx_right_in[2]
*25 chanx_right_in[3]
*26 chanx_right_in[4]
*27 chanx_right_in[5]
*28 chanx_right_in[6]
*29 chanx_right_in[7]
*30 chanx_right_in[8]
*31 chanx_right_in[9]
*32 chanx_right_out[0]
*33 chanx_right_out[10]
*34 chanx_right_out[11]
*35 chanx_right_out[12]
*36 chanx_right_out[13]
*37 chanx_right_out[14]
*38 chanx_right_out[15]
*39 chanx_right_out[16]
*40 chanx_right_out[17]
*41 chanx_right_out[18]
*42 chanx_right_out[1]
*43 chanx_right_out[2]
*44 chanx_right_out[3]
*45 chanx_right_out[4]
*46 chanx_right_out[5]
*47 chanx_right_out[6]
*48 chanx_right_out[7]
*49 chanx_right_out[8]
*50 chanx_right_out[9]
*51 chany_bottom_in[0]
*52 chany_bottom_in[10]
*53 chany_bottom_in[11]
*54 chany_bottom_in[12]
*55 chany_bottom_in[13]
*56 chany_bottom_in[14]
*57 chany_bottom_in[15]
*58 chany_bottom_in[16]
*59 chany_bottom_in[17]
*60 chany_bottom_in[18]
*61 chany_bottom_in[1]
*62 chany_bottom_in[2]
*63 chany_bottom_in[3]
*64 chany_bottom_in[4]
*65 chany_bottom_in[5]
*66 chany_bottom_in[6]
*67 chany_bottom_in[7]
*68 chany_bottom_in[8]
*69 chany_bottom_in[9]
*70 chany_bottom_out[0]
*71 chany_bottom_out[10]
*72 chany_bottom_out[11]
*73 chany_bottom_out[12]
*74 chany_bottom_out[13]
*75 chany_bottom_out[14]
*76 chany_bottom_out[15]
*77 chany_bottom_out[16]
*78 chany_bottom_out[17]
*79 chany_bottom_out[18]
*80 chany_bottom_out[1]
*81 chany_bottom_out[2]
*82 chany_bottom_out[3]
*83 chany_bottom_out[4]
*84 chany_bottom_out[5]
*85 chany_bottom_out[6]
*86 chany_bottom_out[7]
*87 chany_bottom_out[8]
*88 chany_bottom_out[9]
*89 chany_top_in[0]
*90 chany_top_in[10]
*91 chany_top_in[11]
*92 chany_top_in[12]
*93 chany_top_in[13]
*94 chany_top_in[14]
*95 chany_top_in[15]
*96 chany_top_in[16]
*97 chany_top_in[17]
*98 chany_top_in[18]
*99 chany_top_in[1]
*100 chany_top_in[2]
*101 chany_top_in[3]
*102 chany_top_in[4]
*103 chany_top_in[5]
*104 chany_top_in[6]
*105 chany_top_in[7]
*106 chany_top_in[8]
*107 chany_top_in[9]
*108 chany_top_out[0]
*109 chany_top_out[10]
*110 chany_top_out[11]
*111 chany_top_out[12]
*112 chany_top_out[13]
*113 chany_top_out[14]
*114 chany_top_out[15]
*115 chany_top_out[16]
*116 chany_top_out[17]
*117 chany_top_out[18]
*118 chany_top_out[1]
*119 chany_top_out[2]
*120 chany_top_out[3]
*121 chany_top_out[4]
*122 chany_top_out[5]
*123 chany_top_out[6]
*124 chany_top_out[7]
*125 chany_top_out[8]
*126 chany_top_out[9]
*127 pReset
*128 prog_clk
*129 right_bottom_grid_top_width_0_height_0_subtile_0__pin_O_0_
*130 right_bottom_grid_top_width_0_height_0_subtile_0__pin_O_4_
*131 right_top_grid_bottom_width_0_height_0_subtile_0__pin_O_2_
*132 right_top_grid_bottom_width_0_height_0_subtile_0__pin_O_6_
*133 top_left_grid_right_width_0_height_0_subtile_0__pin_inpad_0_
*134 top_left_grid_right_width_0_height_0_subtile_1__pin_inpad_0_
*135 top_left_grid_right_width_0_height_0_subtile_2__pin_inpad_0_
*136 top_left_grid_right_width_0_height_0_subtile_3__pin_inpad_0_
*137 top_left_grid_right_width_0_height_0_subtile_4__pin_inpad_0_
*138 top_left_grid_right_width_0_height_0_subtile_5__pin_inpad_0_
*139 top_left_grid_right_width_0_height_0_subtile_6__pin_inpad_0_
*140 top_left_grid_right_width_0_height_0_subtile_7__pin_inpad_0_
*141 top_right_grid_left_width_0_height_0_subtile_0__pin_O_3_
*142 top_right_grid_left_width_0_height_0_subtile_0__pin_O_7_
*145 _0000_
*146 _0001_
*147 _0002_
*148 _0003_
*149 _0004_
*150 _0005_
*151 _0006_
*152 _0007_
*153 _0008_
*154 _0009_
*155 _0010_
*156 _0011_
*157 _0012_
*158 _0013_
*159 _0014_
*160 _0015_
*161 _0016_
*162 _0017_
*163 _0018_
*164 _0019_
*165 _0020_
*166 _0021_
*167 _0022_
*168 _0023_
*169 _0024_
*170 _0025_
*171 _0026_
*172 _0027_
*173 _0028_
*174 _0029_
*175 _0030_
*176 _0031_
*177 _0032_
*178 _0033_
*179 _0034_
*180 _0035_
*181 _0036_
*182 _0037_
*183 _0038_
*184 _0039_
*185 _0040_
*186 _0041_
*187 _0042_
*188 _0043_
*189 _0044_
*190 _0045_
*191 _0046_
*192 _0047_
*193 _0048_
*194 _0049_
*195 _0050_
*196 _0051_
*197 _0052_
*198 _0053_
*199 _0054_
*200 _0055_
*201 _0056_
*202 _0057_
*203 _0058_
*204 _0059_
*205 _0060_
*206 _0061_
*207 _0062_
*208 _0063_
*209 _0064_
*210 _0065_
*211 _0066_
*212 _0067_
*213 _0068_
*214 _0069_
*215 _0070_
*216 _0071_
*217 _0072_
*218 _0073_
*219 _0074_
*220 _0075_
*221 _0076_
*222 _0077_
*223 _0078_
*224 _0079_
*225 _0080_
*226 _0081_
*227 _0082_
*228 _0083_
*229 _0084_
*230 _0085_
*231 _0086_
*232 _0087_
*233 _0088_
*234 _0089_
*235 _0090_
*236 _0091_
*237 _0092_
*238 _0093_
*239 _0094_
*240 _0095_
*241 _0096_
*242 _0097_
*243 _0098_
*244 _0099_
*245 _0100_
*246 _0101_
*247 _0102_
*248 _0103_
*249 _0104_
*250 _0105_
*251 _0106_
*252 _0107_
*253 _0108_
*254 _0109_
*255 _0110_
*256 _0111_
*257 _0112_
*258 _0113_
*259 _0114_
*260 _0115_
*261 _0116_
*262 _0117_
*263 _0118_
*264 _0119_
*265 _0120_
*266 _0121_
*267 _0122_
*268 _0123_
*269 _0124_
*270 _0125_
*271 _0126_
*272 _0127_
*273 _0128_
*274 _0129_
*275 _0130_
*276 _0131_
*277 _0132_
*278 _0133_
*279 _0134_
*280 _0135_
*281 _0136_
*282 _0137_
*283 _0138_
*284 _0139_
*285 _0140_
*286 _0141_
*287 _0142_
*288 _0143_
*289 _0144_
*290 _0145_
*291 _0146_
*292 _0147_
*293 _0148_
*294 _0149_
*295 _0150_
*296 _0151_
*297 _0152_
*298 _0153_
*299 _0154_
*300 _0155_
*301 _0156_
*302 _0157_
*303 _0158_
*304 _0159_
*305 _0160_
*306 _0161_
*307 _0162_
*308 _0163_
*309 _0164_
*310 _0165_
*311 _0166_
*312 _0167_
*313 _0168_
*314 _0169_
*315 _0170_
*316 _0171_
*317 _0172_
*318 _0173_
*319 _0174_
*320 _0175_
*321 _0176_
*322 _0177_
*323 _0178_
*324 _0179_
*325 _0180_
*326 _0181_
*327 _0182_
*328 _0183_
*329 _0184_
*330 _0185_
*331 _0186_
*332 _0187_
*333 _0188_
*334 _0189_
*335 _0190_
*336 _0191_
*337 _0192_
*338 _0193_
*339 _0194_
*340 _0195_
*341 _0196_
*342 _0197_
*343 _0198_
*344 _0199_
*345 _0200_
*346 _0201_
*347 _0202_
*348 _0203_
*349 _0204_
*350 _0205_
*351 _0206_
*352 _0207_
*353 _0208_
*354 _0209_
*355 _0210_
*356 _0211_
*357 _0212_
*358 _0213_
*359 _0214_
*360 _0215_
*361 _0216_
*362 _0217_
*363 _0218_
*364 _0219_
*365 _0220_
*366 _0221_
*367 _0222_
*368 _0223_
*369 _0224_
*370 _0225_
*371 _0226_
*372 _0227_
*373 _0228_
*374 _0229_
*375 _0230_
*376 _0231_
*377 _0232_
*378 _0233_
*379 _0234_
*380 _0235_
*381 _0236_
*382 _0237_
*383 _0238_
*384 _0239_
*385 _0240_
*386 _0241_
*387 _0242_
*388 _0243_
*389 _0244_
*390 _0245_
*391 _0246_
*392 _0247_
*393 _0248_
*394 _0249_
*395 _0250_
*396 _0251_
*397 _0252_
*398 _0253_
*399 _0254_
*400 _0255_
*401 _0256_
*402 _0257_
*403 _0258_
*404 _0259_
*405 _0260_
*406 _0261_
*407 _0262_
*408 _0263_
*409 _0264_
*410 _0265_
*411 _0266_
*412 _0267_
*413 _0268_
*414 _0269_
*415 _0270_
*416 _0271_
*417 _0272_
*418 _0273_
*419 _0274_
*420 _0275_
*421 _0276_
*422 _0277_
*423 _0278_
*424 _0279_
*425 _0280_
*426 _0281_
*427 _0282_
*428 _0283_
*429 _0284_
*430 _0285_
*431 _0286_
*432 _0287_
*433 _0288_
*434 _0289_
*435 _0290_
*436 _0291_
*437 _0292_
*438 _0293_
*439 _0294_
*440 _0295_
*441 _0296_
*442 _0297_
*443 _0298_
*444 _0299_
*445 _0300_
*446 _0301_
*447 _0302_
*448 _0303_
*449 _0304_
*450 _0305_
*451 _0306_
*452 _0307_
*453 _0308_
*454 _0309_
*455 _0310_
*456 _0311_
*457 _0312_
*458 _0313_
*459 _0314_
*460 _0315_
*461 _0316_
*462 _0317_
*463 _0318_
*464 _0319_
*465 _0320_
*466 _0321_
*467 _0322_
*468 _0323_
*469 _0324_
*470 _0325_
*471 _0326_
*472 _0327_
*473 _0328_
*474 _0329_
*475 _0330_
*476 _0331_
*477 _0332_
*478 _0333_
*479 _0334_
*480 _0335_
*481 _0336_
*482 _0337_
*483 _0338_
*484 _0339_
*485 _0340_
*486 _0341_
*487 _0342_
*488 _0343_
*489 _0344_
*490 _0345_
*491 _0346_
*492 _0347_
*493 _0348_
*494 _0349_
*495 _0350_
*496 _0351_
*497 _0352_
*498 _0353_
*499 _0354_
*500 _0355_
*501 _0356_
*502 _0357_
*503 _0358_
*504 clknet_0_prog_clk
*505 clknet_4_0_0_prog_clk
*506 clknet_4_10_0_prog_clk
*507 clknet_4_11_0_prog_clk
*508 clknet_4_12_0_prog_clk
*509 clknet_4_13_0_prog_clk
*510 clknet_4_14_0_prog_clk
*511 clknet_4_15_0_prog_clk
*512 clknet_4_1_0_prog_clk
*513 clknet_4_2_0_prog_clk
*514 clknet_4_3_0_prog_clk
*515 clknet_4_4_0_prog_clk
*516 clknet_4_5_0_prog_clk
*517 clknet_4_6_0_prog_clk
*518 clknet_4_7_0_prog_clk
*519 clknet_4_8_0_prog_clk
*520 clknet_4_9_0_prog_clk
*521 mem_bottom_track_1\.DFFR_0_\.D
*522 mem_bottom_track_1\.DFFR_0_\.Q
*523 mem_bottom_track_1\.DFFR_1_\.Q
*524 mem_bottom_track_1\.DFFR_2_\.Q
*525 mem_bottom_track_1\.DFFR_3_\.Q
*526 mem_bottom_track_1\.DFFR_4_\.Q
*527 mem_bottom_track_1\.DFFR_5_\.Q
*528 mem_bottom_track_1\.DFFR_6_\.Q
*529 mem_bottom_track_1\.DFFR_7_\.Q
*530 mem_bottom_track_17\.DFFR_0_\.D
*531 mem_bottom_track_17\.DFFR_0_\.Q
*532 mem_bottom_track_17\.DFFR_1_\.Q
*533 mem_bottom_track_17\.DFFR_2_\.Q
*534 mem_bottom_track_17\.DFFR_3_\.Q
*535 mem_bottom_track_17\.DFFR_4_\.Q
*536 mem_bottom_track_17\.DFFR_5_\.Q
*537 mem_bottom_track_17\.DFFR_6_\.Q
*538 mem_bottom_track_17\.DFFR_7_\.Q
*539 mem_bottom_track_25\.DFFR_0_\.Q
*540 mem_bottom_track_25\.DFFR_1_\.Q
*541 mem_bottom_track_25\.DFFR_2_\.Q
*542 mem_bottom_track_25\.DFFR_3_\.Q
*543 mem_bottom_track_25\.DFFR_4_\.Q
*544 mem_bottom_track_25\.DFFR_5_\.Q
*545 mem_bottom_track_25\.DFFR_6_\.Q
*546 mem_bottom_track_25\.DFFR_7_\.Q
*547 mem_bottom_track_33\.DFFR_0_\.Q
*548 mem_bottom_track_33\.DFFR_1_\.Q
*549 mem_bottom_track_33\.DFFR_2_\.Q
*550 mem_bottom_track_33\.DFFR_3_\.Q
*551 mem_bottom_track_33\.DFFR_4_\.Q
*552 mem_bottom_track_9\.DFFR_0_\.Q
*553 mem_bottom_track_9\.DFFR_1_\.Q
*554 mem_bottom_track_9\.DFFR_2_\.Q
*555 mem_bottom_track_9\.DFFR_3_\.Q
*556 mem_bottom_track_9\.DFFR_4_\.Q
*557 mem_bottom_track_9\.DFFR_5_\.Q
*558 mem_bottom_track_9\.DFFR_6_\.Q
*559 mem_right_track_0\.DFFR_0_\.D
*560 mem_right_track_0\.DFFR_0_\.Q
*561 mem_right_track_0\.DFFR_1_\.Q
*562 mem_right_track_0\.DFFR_2_\.Q
*563 mem_right_track_0\.DFFR_3_\.Q
*564 mem_right_track_0\.DFFR_4_\.Q
*565 mem_right_track_0\.DFFR_5_\.Q
*566 mem_right_track_10\.DFFR_0_\.D
*567 mem_right_track_10\.DFFR_0_\.Q
*568 mem_right_track_10\.DFFR_1_\.Q
*569 mem_right_track_12\.DFFR_0_\.Q
*570 mem_right_track_12\.DFFR_1_\.Q
*571 mem_right_track_14\.DFFR_0_\.Q
*572 mem_right_track_14\.DFFR_1_\.Q
*573 mem_right_track_16\.DFFR_0_\.Q
*574 mem_right_track_16\.DFFR_1_\.Q
*575 mem_right_track_18\.DFFR_0_\.Q
*576 mem_right_track_18\.DFFR_1_\.Q
*577 mem_right_track_2\.DFFR_0_\.Q
*578 mem_right_track_2\.DFFR_1_\.Q
*579 mem_right_track_2\.DFFR_2_\.Q
*580 mem_right_track_2\.DFFR_3_\.Q
*581 mem_right_track_2\.DFFR_4_\.Q
*582 mem_right_track_2\.DFFR_5_\.Q
*583 mem_right_track_20\.DFFR_0_\.Q
*584 mem_right_track_20\.DFFR_1_\.Q
*585 mem_right_track_22\.DFFR_0_\.Q
*586 mem_right_track_22\.DFFR_1_\.Q
*587 mem_right_track_24\.DFFR_0_\.Q
*588 mem_right_track_24\.DFFR_1_\.Q
*589 mem_right_track_26\.DFFR_0_\.Q
*590 mem_right_track_4\.DFFR_0_\.Q
*591 mem_right_track_4\.DFFR_1_\.Q
*592 mem_right_track_4\.DFFR_2_\.Q
*593 mem_right_track_4\.DFFR_3_\.Q
*594 mem_right_track_4\.DFFR_4_\.Q
*595 mem_right_track_4\.DFFR_5_\.Q
*596 mem_right_track_6\.DFFR_0_\.Q
*597 mem_right_track_6\.DFFR_1_\.Q
*598 mem_right_track_6\.DFFR_2_\.Q
*599 mem_right_track_6\.DFFR_3_\.Q
*600 mem_right_track_6\.DFFR_4_\.Q
*601 mem_right_track_6\.DFFR_5_\.Q
*602 mem_right_track_8\.DFFR_0_\.Q
*603 mem_top_track_0\.DFFR_0_\.Q
*604 mem_top_track_0\.DFFR_1_\.Q
*605 mem_top_track_0\.DFFR_2_\.Q
*606 mem_top_track_0\.DFFR_3_\.Q
*607 mem_top_track_0\.DFFR_4_\.Q
*608 mem_top_track_0\.DFFR_5_\.Q
*609 mem_top_track_0\.DFFR_6_\.Q
*610 mem_top_track_0\.DFFR_7_\.Q
*611 mem_top_track_16\.DFFR_0_\.D
*612 mem_top_track_16\.DFFR_0_\.Q
*613 mem_top_track_16\.DFFR_1_\.Q
*614 mem_top_track_16\.DFFR_2_\.Q
*615 mem_top_track_16\.DFFR_3_\.Q
*616 mem_top_track_16\.DFFR_4_\.Q
*617 mem_top_track_16\.DFFR_5_\.Q
*618 mem_top_track_16\.DFFR_6_\.Q
*619 mem_top_track_16\.DFFR_7_\.Q
*620 mem_top_track_24\.DFFR_0_\.Q
*621 mem_top_track_24\.DFFR_1_\.Q
*622 mem_top_track_24\.DFFR_2_\.Q
*623 mem_top_track_24\.DFFR_3_\.Q
*624 mem_top_track_24\.DFFR_4_\.Q
*625 mem_top_track_24\.DFFR_5_\.Q
*626 mem_top_track_32\.DFFR_0_\.Q
*627 mem_top_track_32\.DFFR_1_\.Q
*628 mem_top_track_32\.DFFR_2_\.Q
*629 mem_top_track_32\.DFFR_3_\.Q
*630 mem_top_track_32\.DFFR_4_\.Q
*631 mem_top_track_8\.DFFR_0_\.Q
*632 mem_top_track_8\.DFFR_1_\.Q
*633 mem_top_track_8\.DFFR_2_\.Q
*634 mem_top_track_8\.DFFR_3_\.Q
*635 mem_top_track_8\.DFFR_4_\.Q
*636 mem_top_track_8\.DFFR_5_\.Q
*637 mem_top_track_8\.DFFR_6_\.Q
*638 mux_bottom_track_1\.INVTX1_0_\.out
*639 mux_bottom_track_1\.INVTX1_1_\.out
*640 mux_bottom_track_1\.INVTX1_2_\.out
*641 mux_bottom_track_1\.INVTX1_3_\.out
*642 mux_bottom_track_1\.INVTX1_4_\.out
*643 mux_bottom_track_1\.INVTX1_5_\.out
*644 mux_bottom_track_1\.INVTX1_6_\.out
*645 mux_bottom_track_1\.INVTX1_7_\.out
*646 mux_bottom_track_1\.INVTX1_8_\.out
*647 mux_bottom_track_1\.mux_2level_tapbuf_basis_input4_mem4_0_out
*648 mux_bottom_track_1\.mux_2level_tapbuf_basis_input4_mem4_1_out
*649 mux_bottom_track_1\.mux_2level_tapbuf_basis_input4_mem4_2_out
*650 mux_bottom_track_1\.out
*651 mux_bottom_track_17\.INVTX1_0_\.out
*652 mux_bottom_track_17\.INVTX1_1_\.out
*653 mux_bottom_track_17\.INVTX1_2_\.out
*654 mux_bottom_track_17\.INVTX1_3_\.out
*655 mux_bottom_track_17\.INVTX1_4_\.out
*656 mux_bottom_track_17\.INVTX1_5_\.out
*657 mux_bottom_track_17\.INVTX1_6_\.out
*658 mux_bottom_track_17\.INVTX1_7_\.out
*659 mux_bottom_track_17\.INVTX1_8_\.out
*660 mux_bottom_track_17\.mux_2level_tapbuf_basis_input4_mem4_0_out
*661 mux_bottom_track_17\.mux_2level_tapbuf_basis_input4_mem4_1_out
*662 mux_bottom_track_17\.mux_2level_tapbuf_basis_input4_mem4_2_out
*663 mux_bottom_track_17\.out
*664 mux_bottom_track_25\.INVTX1_0_\.out
*665 mux_bottom_track_25\.INVTX1_1_\.out
*666 mux_bottom_track_25\.INVTX1_2_\.out
*667 mux_bottom_track_25\.INVTX1_3_\.out
*668 mux_bottom_track_25\.INVTX1_4_\.out
*669 mux_bottom_track_25\.INVTX1_5_\.out
*670 mux_bottom_track_25\.INVTX1_6_\.out
*671 mux_bottom_track_25\.INVTX1_7_\.out
*672 mux_bottom_track_25\.INVTX1_8_\.out
*673 mux_bottom_track_25\.mux_2level_tapbuf_basis_input4_mem4_0_out
*674 mux_bottom_track_25\.mux_2level_tapbuf_basis_input4_mem4_1_out
*675 mux_bottom_track_25\.mux_2level_tapbuf_basis_input4_mem4_2_out
*676 mux_bottom_track_25\.out
*677 mux_bottom_track_33\.INVTX1_0_\.out
*678 mux_bottom_track_33\.INVTX1_1_\.out
*679 mux_bottom_track_33\.INVTX1_2_\.out
*680 mux_bottom_track_33\.INVTX1_3_\.out
*681 mux_bottom_track_33\.INVTX1_4_\.out
*682 mux_bottom_track_33\.INVTX1_5_\.out
*683 mux_bottom_track_33\.INVTX1_6_\.out
*684 mux_bottom_track_33\.mux_2level_tapbuf_basis_input2_mem2_0_out
*685 mux_bottom_track_33\.mux_2level_tapbuf_basis_input3_mem3_0_out
*686 mux_bottom_track_33\.mux_2level_tapbuf_basis_input3_mem3_1_out
*687 mux_bottom_track_33\.mux_2level_tapbuf_basis_input3_mem3_2_out
*688 mux_bottom_track_33\.out
*689 mux_bottom_track_9\.INVTX1_0_\.out
*690 mux_bottom_track_9\.INVTX1_1_\.out
*691 mux_bottom_track_9\.INVTX1_2_\.out
*692 mux_bottom_track_9\.INVTX1_3_\.out
*693 mux_bottom_track_9\.INVTX1_4_\.out
*694 mux_bottom_track_9\.INVTX1_5_\.out
*695 mux_bottom_track_9\.INVTX1_6_\.out
*696 mux_bottom_track_9\.INVTX1_7_\.out
*697 mux_bottom_track_9\.INVTX1_8_\.out
*698 mux_bottom_track_9\.mux_2level_tapbuf_basis_input4_mem4_0_out
*699 mux_bottom_track_9\.mux_2level_tapbuf_basis_input4_mem4_1_out
*700 mux_bottom_track_9\.mux_2level_tapbuf_basis_input4_mem4_2_out
*701 mux_bottom_track_9\.out
*702 mux_right_track_0\.INVTX1_1_\.out
*703 mux_right_track_0\.INVTX1_2_\.out
*704 mux_right_track_0\.INVTX1_3_\.out
*705 mux_right_track_0\.mux_2level_tapbuf_basis_input3_mem3_0_out
*706 mux_right_track_0\.mux_2level_tapbuf_basis_input3_mem3_1_out
*707 mux_right_track_0\.out
*708 mux_right_track_10\.INVTX1_1_\.out
*709 mux_right_track_10\.INVTX1_2_\.out
*710 mux_right_track_10\.mux_2level_tapbuf_basis_input2_mem1_0_out
*711 mux_right_track_10\.mux_2level_tapbuf_basis_input2_mem1_1_out
*712 mux_right_track_10\.mux_2level_tapbuf_basis_input2_mem1_2_out
*713 mux_right_track_10\.out
*714 mux_right_track_12\.INVTX1_1_\.out
*715 mux_right_track_12\.mux_2level_tapbuf_basis_input2_mem1_0_out
*716 mux_right_track_12\.mux_2level_tapbuf_basis_input2_mem1_1_out
*717 mux_right_track_12\.out
*718 mux_right_track_14\.INVTX1_1_\.out
*719 mux_right_track_14\.mux_2level_tapbuf_basis_input2_mem1_0_out
*720 mux_right_track_14\.mux_2level_tapbuf_basis_input2_mem1_1_out
*721 mux_right_track_14\.out
*722 mux_right_track_16\.INVTX1_1_\.out
*723 mux_right_track_16\.mux_2level_tapbuf_basis_input2_mem1_0_out
*724 mux_right_track_16\.mux_2level_tapbuf_basis_input2_mem1_1_out
*725 mux_right_track_16\.out
*726 mux_right_track_18\.INVTX1_2_\.out
*727 mux_right_track_18\.mux_2level_tapbuf_basis_input2_mem1_0_out
*728 mux_right_track_18\.mux_2level_tapbuf_basis_input2_mem1_1_out
*729 mux_right_track_18\.mux_2level_tapbuf_basis_input2_mem1_2_out
*730 mux_right_track_18\.out
*731 mux_right_track_2\.INVTX1_1_\.out
*732 mux_right_track_2\.INVTX1_3_\.out
*733 mux_right_track_2\.INVTX1_4_\.out
*734 mux_right_track_2\.mux_2level_tapbuf_basis_input2_mem2_0_out
*735 mux_right_track_2\.mux_2level_tapbuf_basis_input3_mem3_0_out
*736 mux_right_track_2\.mux_2level_tapbuf_basis_input3_mem3_1_out
*737 mux_right_track_2\.out
*738 mux_right_track_20\.INVTX1_2_\.out
*739 mux_right_track_20\.mux_2level_tapbuf_basis_input2_mem1_0_out
*740 mux_right_track_20\.mux_2level_tapbuf_basis_input2_mem1_1_out
*741 mux_right_track_20\.mux_2level_tapbuf_basis_input2_mem1_2_out
*742 mux_right_track_20\.out
*743 mux_right_track_22\.INVTX1_2_\.out
*744 mux_right_track_22\.mux_2level_tapbuf_basis_input2_mem1_0_out
*745 mux_right_track_22\.mux_2level_tapbuf_basis_input2_mem1_1_out
*746 mux_right_track_22\.mux_2level_tapbuf_basis_input2_mem1_2_out
*747 mux_right_track_22\.out
*748 mux_right_track_24\.INVTX1_1_\.out
*749 mux_right_track_24\.INVTX1_2_\.out
*750 mux_right_track_24\.mux_2level_tapbuf_basis_input2_mem1_0_out
*751 mux_right_track_24\.mux_2level_tapbuf_basis_input2_mem1_1_out
*752 mux_right_track_24\.mux_2level_tapbuf_basis_input2_mem1_2_out
*753 mux_right_track_24\.out
*754 mux_right_track_26\.INVTX1_1_\.out
*755 mux_right_track_26\.INVTX1_2_\.out
*756 mux_right_track_26\.mux_2level_tapbuf_basis_input2_mem1_0_out
*757 mux_right_track_26\.mux_2level_tapbuf_basis_input2_mem1_1_out
*758 mux_right_track_26\.mux_2level_tapbuf_basis_input2_mem1_2_out
*759 mux_right_track_26\.out
*760 mux_right_track_4\.INVTX1_1_\.out
*761 mux_right_track_4\.INVTX1_4_\.out
*762 mux_right_track_4\.mux_2level_tapbuf_basis_input2_mem2_0_out
*763 mux_right_track_4\.mux_2level_tapbuf_basis_input3_mem3_0_out
*764 mux_right_track_4\.mux_2level_tapbuf_basis_input3_mem3_1_out
*765 mux_right_track_4\.out
*766 mux_right_track_6\.INVTX1_1_\.out
*767 mux_right_track_6\.INVTX1_3_\.out
*768 mux_right_track_6\.mux_2level_tapbuf_basis_input3_mem3_0_out
*769 mux_right_track_6\.mux_2level_tapbuf_basis_input3_mem3_1_out
*770 mux_right_track_6\.out
*771 mux_right_track_8\.INVTX1_1_\.out
*772 mux_right_track_8\.INVTX1_2_\.out
*773 mux_right_track_8\.mux_2level_tapbuf_basis_input2_mem1_0_out
*774 mux_right_track_8\.mux_2level_tapbuf_basis_input2_mem1_1_out
*775 mux_right_track_8\.mux_2level_tapbuf_basis_input2_mem1_2_out
*776 mux_right_track_8\.out
*777 mux_top_track_0\.INVTX1_0_\.out
*778 mux_top_track_0\.INVTX1_1_\.out
*779 mux_top_track_0\.mux_2level_tapbuf_basis_input4_mem4_0_out
*780 mux_top_track_0\.mux_2level_tapbuf_basis_input4_mem4_1_out
*781 mux_top_track_0\.mux_2level_tapbuf_basis_input4_mem4_2_out
*782 mux_top_track_0\.out
*783 mux_top_track_16\.INVTX1_0_\.out
*784 mux_top_track_16\.INVTX1_1_\.out
*785 mux_top_track_16\.mux_2level_tapbuf_basis_input4_mem4_0_out
*786 mux_top_track_16\.mux_2level_tapbuf_basis_input4_mem4_1_out
*787 mux_top_track_16\.mux_2level_tapbuf_basis_input4_mem4_2_out
*788 mux_top_track_16\.out
*789 mux_top_track_24\.INVTX1_0_\.out
*790 mux_top_track_24\.INVTX1_1_\.out
*791 mux_top_track_24\.mux_2level_tapbuf_basis_input3_mem3_0_out
*792 mux_top_track_24\.mux_2level_tapbuf_basis_input3_mem3_1_out
*793 mux_top_track_24\.mux_2level_tapbuf_basis_input3_mem3_2_out
*794 mux_top_track_24\.mux_2level_tapbuf_basis_input3_mem3_3_out
*795 mux_top_track_24\.out
*796 mux_top_track_32\.INVTX1_0_\.out
*797 mux_top_track_32\.INVTX1_1_\.out
*798 mux_top_track_32\.mux_2level_tapbuf_basis_input3_mem3_0_out
*799 mux_top_track_32\.mux_2level_tapbuf_basis_input3_mem3_1_out
*800 mux_top_track_32\.mux_2level_tapbuf_basis_input3_mem3_2_out
*801 mux_top_track_32\.mux_2level_tapbuf_basis_input3_mem3_3_out
*802 mux_top_track_32\.out
*803 mux_top_track_8\.INVTX1_0_\.out
*804 mux_top_track_8\.INVTX1_1_\.out
*805 mux_top_track_8\.mux_2level_tapbuf_basis_input4_mem4_0_out
*806 mux_top_track_8\.mux_2level_tapbuf_basis_input4_mem4_1_out
*807 mux_top_track_8\.mux_2level_tapbuf_basis_input4_mem4_2_out
*808 mux_top_track_8\.out
*809 net1
*810 net10
*811 net100
*812 net101
*813 net102
*814 net103
*815 net104
*816 net105
*817 net106
*818 net107
*819 net108
*820 net109
*821 net11
*822 net110
*823 net111
*824 net112
*825 net113
*826 net114
*827 net115
*828 net116
*829 net117
*830 net118
*831 net119
*832 net12
*833 net120
*834 net121
*835 net122
*836 net123
*837 net124
*838 net125
*839 net126
*840 net127
*841 net128
*842 net129
*843 net13
*844 net130
*845 net131
*846 net132
*847 net133
*848 net134
*849 net135
*850 net136
*851 net137
*852 net138
*853 net139
*854 net14
*855 net140
*856 net141
*857 net142
*858 net143
*859 net144
*860 net145
*861 net146
*862 net147
*863 net148
*864 net149
*865 net15
*866 net150
*867 net151
*868 net152
*869 net153
*870 net154
*871 net155
*872 net156
*873 net157
*874 net158
*875 net159
*876 net16
*877 net160
*878 net161
*879 net162
*880 net163
*881 net164
*882 net165
*883 net17
*884 net18
*885 net19
*886 net2
*887 net20
*888 net21
*889 net22
*890 net23
*891 net24
*892 net25
*893 net26
*894 net27
*895 net28
*896 net29
*897 net3
*898 net30
*899 net31
*900 net32
*901 net33
*902 net34
*903 net35
*904 net36
*905 net37
*906 net38
*907 net39
*908 net4
*909 net40
*910 net41
*911 net42
*912 net43
*913 net44
*914 net45
*915 net46
*916 net47
*917 net48
*918 net49
*919 net5
*920 net50
*921 net51
*922 net52
*923 net53
*924 net54
*925 net55
*926 net56
*927 net57
*928 net58
*929 net59
*930 net6
*931 net60
*932 net61
*933 net62
*934 net63
*935 net64
*936 net65
*937 net66
*938 net67
*939 net68
*940 net69
*941 net7
*942 net70
*943 net71
*944 net72
*945 net73
*946 net74
*947 net75
*948 net76
*949 net77
*950 net78
*951 net79
*952 net8
*953 net80
*954 net81
*955 net82
*956 net83
*957 net84
*958 net85
*959 net86
*960 net87
*961 net88
*962 net89
*963 net9
*964 net90
*965 net91
*966 net92
*967 net93
*968 net94
*969 net95
*970 net96
*971 net97
*972 net98
*973 net99
*974 ANTENNA_1
*975 ANTENNA_2
*976 ANTENNA_3
*977 ANTENNA_4
*978 ANTENNA_5
*979 FILLER_0_104
*980 FILLER_0_113
*981 FILLER_0_118
*982 FILLER_0_126
*983 FILLER_0_138
*984 FILLER_0_14
*985 FILLER_0_141
*986 FILLER_0_146
*987 FILLER_0_160
*988 FILLER_0_169
*989 FILLER_0_181
*990 FILLER_0_188
*991 FILLER_0_197
*992 FILLER_0_202
*993 FILLER_0_209
*994 FILLER_0_22
*995 FILLER_0_221
*996 FILLER_0_225
*997 FILLER_0_230
*998 FILLER_0_238
*999 FILLER_0_250
*1000 FILLER_0_253
*1001 FILLER_0_258
*1002 FILLER_0_266
*1003 FILLER_0_272
*1004 FILLER_0_281
*1005 FILLER_0_286
*1006 FILLER_0_29
*1007 FILLER_0_294
*1008 FILLER_0_3
*1009 FILLER_0_306
*1010 FILLER_0_309
*1011 FILLER_0_315
*1012 FILLER_0_323
*1013 FILLER_0_334
*1014 FILLER_0_337
*1015 FILLER_0_349
*1016 FILLER_0_35
*1017 FILLER_0_357
*1018 FILLER_0_363
*1019 FILLER_0_365
*1020 FILLER_0_371
*1021 FILLER_0_377
*1022 FILLER_0_382
*1023 FILLER_0_390
*1024 FILLER_0_393
*1025 FILLER_0_399
*1026 FILLER_0_403
*1027 FILLER_0_43
*1028 FILLER_0_49
*1029 FILLER_0_55
*1030 FILLER_0_57
*1031 FILLER_0_63
*1032 FILLER_0_70
*1033 FILLER_0_82
*1034 FILLER_0_85
*1035 FILLER_0_9
*1036 FILLER_0_90
*1037 FILLER_0_97
*1038 FILLER_10_109
*1039 FILLER_10_121
*1040 FILLER_10_133
*1041 FILLER_10_139
*1042 FILLER_10_141
*1043 FILLER_10_153
*1044 FILLER_10_165
*1045 FILLER_10_177
*1046 FILLER_10_189
*1047 FILLER_10_195
*1048 FILLER_10_197
*1049 FILLER_10_20
*1050 FILLER_10_209
*1051 FILLER_10_221
*1052 FILLER_10_227
*1053 FILLER_10_239
*1054 FILLER_10_243
*1055 FILLER_10_251
*1056 FILLER_10_253
*1057 FILLER_10_265
*1058 FILLER_10_277
*1059 FILLER_10_29
*1060 FILLER_10_293
*1061 FILLER_10_3
*1062 FILLER_10_305
*1063 FILLER_10_309
*1064 FILLER_10_321
*1065 FILLER_10_327
*1066 FILLER_10_332
*1067 FILLER_10_336
*1068 FILLER_10_341
*1069 FILLER_10_353
*1070 FILLER_10_361
*1071 FILLER_10_365
*1072 FILLER_10_377
*1073 FILLER_10_389
*1074 FILLER_10_405
*1075 FILLER_10_41
*1076 FILLER_10_53
*1077 FILLER_10_65
*1078 FILLER_10_8
*1079 FILLER_10_80
*1080 FILLER_10_85
*1081 FILLER_10_97
*1082 FILLER_11_103
*1083 FILLER_11_111
*1084 FILLER_11_113
*1085 FILLER_11_125
*1086 FILLER_11_137
*1087 FILLER_11_149
*1088 FILLER_11_15
*1089 FILLER_11_161
*1090 FILLER_11_167
*1091 FILLER_11_169
*1092 FILLER_11_181
*1093 FILLER_11_193
*1094 FILLER_11_205
*1095 FILLER_11_217
*1096 FILLER_11_222
*1097 FILLER_11_225
*1098 FILLER_11_236
*1099 FILLER_11_248
*1100 FILLER_11_260
*1101 FILLER_11_27
*1102 FILLER_11_272
*1103 FILLER_11_278
*1104 FILLER_11_281
*1105 FILLER_11_296
*1106 FILLER_11_3
*1107 FILLER_11_305
*1108 FILLER_11_313
*1109 FILLER_11_318
*1110 FILLER_11_330
*1111 FILLER_11_337
*1112 FILLER_11_349
*1113 FILLER_11_361
*1114 FILLER_11_373
*1115 FILLER_11_385
*1116 FILLER_11_39
*1117 FILLER_11_391
*1118 FILLER_11_393
*1119 FILLER_11_401
*1120 FILLER_11_405
*1121 FILLER_11_51
*1122 FILLER_11_55
*1123 FILLER_11_57
*1124 FILLER_11_69
*1125 FILLER_11_81
*1126 FILLER_11_93
*1127 FILLER_11_99
*1128 FILLER_12_109
*1129 FILLER_12_121
*1130 FILLER_12_133
*1131 FILLER_12_139
*1132 FILLER_12_141
*1133 FILLER_12_151
*1134 FILLER_12_163
*1135 FILLER_12_175
*1136 FILLER_12_187
*1137 FILLER_12_195
*1138 FILLER_12_197
*1139 FILLER_12_205
*1140 FILLER_12_21
*1141 FILLER_12_210
*1142 FILLER_12_222
*1143 FILLER_12_233
*1144 FILLER_12_241
*1145 FILLER_12_249
*1146 FILLER_12_253
*1147 FILLER_12_264
*1148 FILLER_12_27
*1149 FILLER_12_276
*1150 FILLER_12_282
*1151 FILLER_12_286
*1152 FILLER_12_29
*1153 FILLER_12_298
*1154 FILLER_12_3
*1155 FILLER_12_306
*1156 FILLER_12_309
*1157 FILLER_12_313
*1158 FILLER_12_323
*1159 FILLER_12_335
*1160 FILLER_12_343
*1161 FILLER_12_347
*1162 FILLER_12_359
*1163 FILLER_12_363
*1164 FILLER_12_365
*1165 FILLER_12_377
*1166 FILLER_12_389
*1167 FILLER_12_395
*1168 FILLER_12_399
*1169 FILLER_12_41
*1170 FILLER_12_53
*1171 FILLER_12_65
*1172 FILLER_12_77
*1173 FILLER_12_83
*1174 FILLER_12_85
*1175 FILLER_12_9
*1176 FILLER_12_97
*1177 FILLER_13_105
*1178 FILLER_13_11
*1179 FILLER_13_111
*1180 FILLER_13_113
*1181 FILLER_13_121
*1182 FILLER_13_126
*1183 FILLER_13_133
*1184 FILLER_13_148
*1185 FILLER_13_155
*1186 FILLER_13_162
*1187 FILLER_13_169
*1188 FILLER_13_180
*1189 FILLER_13_192
*1190 FILLER_13_200
*1191 FILLER_13_205
*1192 FILLER_13_217
*1193 FILLER_13_223
*1194 FILLER_13_225
*1195 FILLER_13_23
*1196 FILLER_13_233
*1197 FILLER_13_237
*1198 FILLER_13_250
*1199 FILLER_13_261
*1200 FILLER_13_273
*1201 FILLER_13_279
*1202 FILLER_13_281
*1203 FILLER_13_293
*1204 FILLER_13_3
*1205 FILLER_13_308
*1206 FILLER_13_320
*1207 FILLER_13_332
*1208 FILLER_13_337
*1209 FILLER_13_349
*1210 FILLER_13_35
*1211 FILLER_13_361
*1212 FILLER_13_373
*1213 FILLER_13_385
*1214 FILLER_13_391
*1215 FILLER_13_393
*1216 FILLER_13_397
*1217 FILLER_13_401
*1218 FILLER_13_47
*1219 FILLER_13_55
*1220 FILLER_13_57
*1221 FILLER_13_69
*1222 FILLER_13_7
*1223 FILLER_13_81
*1224 FILLER_13_93
*1225 FILLER_14_109
*1226 FILLER_14_121
*1227 FILLER_14_131
*1228 FILLER_14_139
*1229 FILLER_14_14
*1230 FILLER_14_141
*1231 FILLER_14_153
*1232 FILLER_14_167
*1233 FILLER_14_179
*1234 FILLER_14_184
*1235 FILLER_14_197
*1236 FILLER_14_209
*1237 FILLER_14_224
*1238 FILLER_14_245
*1239 FILLER_14_251
*1240 FILLER_14_253
*1241 FILLER_14_26
*1242 FILLER_14_263
*1243 FILLER_14_275
*1244 FILLER_14_283
*1245 FILLER_14_287
*1246 FILLER_14_29
*1247 FILLER_14_299
*1248 FILLER_14_3
*1249 FILLER_14_307
*1250 FILLER_14_309
*1251 FILLER_14_317
*1252 FILLER_14_321
*1253 FILLER_14_333
*1254 FILLER_14_345
*1255 FILLER_14_357
*1256 FILLER_14_363
*1257 FILLER_14_365
*1258 FILLER_14_377
*1259 FILLER_14_385
*1260 FILLER_14_390
*1261 FILLER_14_397
*1262 FILLER_14_405
*1263 FILLER_14_41
*1264 FILLER_14_53
*1265 FILLER_14_65
*1266 FILLER_14_77
*1267 FILLER_14_83
*1268 FILLER_14_85
*1269 FILLER_14_9
*1270 FILLER_14_97
*1271 FILLER_15_101
*1272 FILLER_15_109
*1273 FILLER_15_113
*1274 FILLER_15_125
*1275 FILLER_15_137
*1276 FILLER_15_145
*1277 FILLER_15_149
*1278 FILLER_15_161
*1279 FILLER_15_167
*1280 FILLER_15_169
*1281 FILLER_15_181
*1282 FILLER_15_193
*1283 FILLER_15_20
*1284 FILLER_15_208
*1285 FILLER_15_220
*1286 FILLER_15_225
*1287 FILLER_15_232
*1288 FILLER_15_244
*1289 FILLER_15_253
*1290 FILLER_15_265
*1291 FILLER_15_277
*1292 FILLER_15_281
*1293 FILLER_15_292
*1294 FILLER_15_3
*1295 FILLER_15_300
*1296 FILLER_15_310
*1297 FILLER_15_317
*1298 FILLER_15_32