*SPEF "ieee 1481-1999"
*DESIGN "sb_1__4_"
*DATE "11:11:11 Fri 11 11, 1111"
*VENDOR "OpenRCX"
*PROGRAM "Parallel Extraction"
*VERSION "1.0"
*DESIGN_FLOW "NAME_SCOPE LOCAL" "PIN_CAP NONE"
*DIVIDER /
*DELIMITER :
*BUS_DELIMITER []
*T_UNIT 1 NS
*C_UNIT 1 PF
*R_UNIT 1 OHM
*L_UNIT 1 HENRY

*NAME_MAP
*1 bottom_left_grid_right_width_0_height_0_subtile_0__pin_O_1_
*2 bottom_left_grid_right_width_0_height_0_subtile_0__pin_O_5_
*3 bottom_right_grid_left_width_0_height_0_subtile_0__pin_O_3_
*4 bottom_right_grid_left_width_0_height_0_subtile_0__pin_O_7_
*5 ccff_head
*6 ccff_tail
*7 chanx_left_in[0]
*8 chanx_left_in[10]
*9 chanx_left_in[11]
*10 chanx_left_in[12]
*11 chanx_left_in[13]
*12 chanx_left_in[14]
*13 chanx_left_in[15]
*14 chanx_left_in[16]
*15 chanx_left_in[17]
*16 chanx_left_in[18]
*17 chanx_left_in[1]
*18 chanx_left_in[2]
*19 chanx_left_in[3]
*20 chanx_left_in[4]
*21 chanx_left_in[5]
*22 chanx_left_in[6]
*23 chanx_left_in[7]
*24 chanx_left_in[8]
*25 chanx_left_in[9]
*26 chanx_left_out[0]
*27 chanx_left_out[10]
*28 chanx_left_out[11]
*29 chanx_left_out[12]
*30 chanx_left_out[13]
*31 chanx_left_out[14]
*32 chanx_left_out[15]
*33 chanx_left_out[16]
*34 chanx_left_out[17]
*35 chanx_left_out[18]
*36 chanx_left_out[1]
*37 chanx_left_out[2]
*38 chanx_left_out[3]
*39 chanx_left_out[4]
*40 chanx_left_out[5]
*41 chanx_left_out[6]
*42 chanx_left_out[7]
*43 chanx_left_out[8]
*44 chanx_left_out[9]
*45 chanx_right_in[0]
*46 chanx_right_in[10]
*47 chanx_right_in[11]
*48 chanx_right_in[12]
*49 chanx_right_in[13]
*50 chanx_right_in[14]
*51 chanx_right_in[15]
*52 chanx_right_in[16]
*53 chanx_right_in[17]
*54 chanx_right_in[18]
*55 chanx_right_in[1]
*56 chanx_right_in[2]
*57 chanx_right_in[3]
*58 chanx_right_in[4]
*59 chanx_right_in[5]
*60 chanx_right_in[6]
*61 chanx_right_in[7]
*62 chanx_right_in[8]
*63 chanx_right_in[9]
*64 chanx_right_out[0]
*65 chanx_right_out[10]
*66 chanx_right_out[11]
*67 chanx_right_out[12]
*68 chanx_right_out[13]
*69 chanx_right_out[14]
*70 chanx_right_out[15]
*71 chanx_right_out[16]
*72 chanx_right_out[17]
*73 chanx_right_out[18]
*74 chanx_right_out[1]
*75 chanx_right_out[2]
*76 chanx_right_out[3]
*77 chanx_right_out[4]
*78 chanx_right_out[5]
*79 chanx_right_out[6]
*80 chanx_right_out[7]
*81 chanx_right_out[8]
*82 chanx_right_out[9]
*83 chany_bottom_in[0]
*84 chany_bottom_in[10]
*85 chany_bottom_in[11]
*86 chany_bottom_in[12]
*87 chany_bottom_in[13]
*88 chany_bottom_in[14]
*89 chany_bottom_in[15]
*90 chany_bottom_in[16]
*91 chany_bottom_in[17]
*92 chany_bottom_in[18]
*93 chany_bottom_in[1]
*94 chany_bottom_in[2]
*95 chany_bottom_in[3]
*96 chany_bottom_in[4]
*97 chany_bottom_in[5]
*98 chany_bottom_in[6]
*99 chany_bottom_in[7]
*100 chany_bottom_in[8]
*101 chany_bottom_in[9]
*102 chany_bottom_out[0]
*103 chany_bottom_out[10]
*104 chany_bottom_out[11]
*105 chany_bottom_out[12]
*106 chany_bottom_out[13]
*107 chany_bottom_out[14]
*108 chany_bottom_out[15]
*109 chany_bottom_out[16]
*110 chany_bottom_out[17]
*111 chany_bottom_out[18]
*112 chany_bottom_out[1]
*113 chany_bottom_out[2]
*114 chany_bottom_out[3]
*115 chany_bottom_out[4]
*116 chany_bottom_out[5]
*117 chany_bottom_out[6]
*118 chany_bottom_out[7]
*119 chany_bottom_out[8]
*120 chany_bottom_out[9]
*121 left_bottom_grid_top_width_0_height_0_subtile_0__pin_O_0_
*122 left_bottom_grid_top_width_0_height_0_subtile_0__pin_O_4_
*123 left_top_grid_bottom_width_0_height_0_subtile_0__pin_inpad_0_
*124 left_top_grid_bottom_width_0_height_0_subtile_1__pin_inpad_0_
*125 left_top_grid_bottom_width_0_height_0_subtile_2__pin_inpad_0_
*126 left_top_grid_bottom_width_0_height_0_subtile_3__pin_inpad_0_
*127 left_top_grid_bottom_width_0_height_0_subtile_4__pin_inpad_0_
*128 left_top_grid_bottom_width_0_height_0_subtile_5__pin_inpad_0_
*129 left_top_grid_bottom_width_0_height_0_subtile_6__pin_inpad_0_
*130 left_top_grid_bottom_width_0_height_0_subtile_7__pin_inpad_0_
*131 pReset
*132 prog_clk
*133 right_bottom_grid_top_width_0_height_0_subtile_0__pin_O_0_
*134 right_bottom_grid_top_width_0_height_0_subtile_0__pin_O_4_
*135 right_top_grid_bottom_width_0_height_0_subtile_0__pin_inpad_0_
*136 right_top_grid_bottom_width_0_height_0_subtile_1__pin_inpad_0_
*137 right_top_grid_bottom_width_0_height_0_subtile_2__pin_inpad_0_
*138 right_top_grid_bottom_width_0_height_0_subtile_3__pin_inpad_0_
*139 right_top_grid_bottom_width_0_height_0_subtile_4__pin_inpad_0_
*140 right_top_grid_bottom_width_0_height_0_subtile_5__pin_inpad_0_
*141 right_top_grid_bottom_width_0_height_0_subtile_6__pin_inpad_0_
*142 right_top_grid_bottom_width_0_height_0_subtile_7__pin_inpad_0_
*145 _0000_
*146 _0001_
*147 _0002_
*148 _0003_
*149 _0004_
*150 _0005_
*151 _0006_
*152 _0007_
*153 _0008_
*154 _0009_
*155 _0010_
*156 _0011_
*157 _0012_
*158 _0013_
*159 _0014_
*160 _0015_
*161 _0016_
*162 _0017_
*163 _0018_
*164 _0019_
*165 _0020_
*166 _0021_
*167 _0022_
*168 _0023_
*169 _0024_
*170 _0025_
*171 _0026_
*172 _0027_
*173 _0028_
*174 _0029_
*175 _0030_
*176 _0031_
*177 _0032_
*178 _0033_
*179 _0034_
*180 _0035_
*181 _0036_
*182 _0037_
*183 _0038_
*184 _0039_
*185 _0040_
*186 _0041_
*187 _0042_
*188 _0043_
*189 _0044_
*190 _0045_
*191 _0046_
*192 _0047_
*193 _0048_
*194 _0049_
*195 _0050_
*196 _0051_
*197 _0052_
*198 _0053_
*199 _0054_
*200 _0055_
*201 _0056_
*202 _0057_
*203 _0058_
*204 _0059_
*205 _0060_
*206 _0061_
*207 _0062_
*208 _0063_
*209 _0064_
*210 _0065_
*211 _0066_
*212 _0067_
*213 _0068_
*214 _0069_
*215 _0070_
*216 _0071_
*217 _0072_
*218 _0073_
*219 _0074_
*220 _0075_
*221 _0076_
*222 _0077_
*223 _0078_
*224 _0079_
*225 _0080_
*226 _0081_
*227 _0082_
*228 _0083_
*229 _0084_
*230 _0085_
*231 _0086_
*232 _0087_
*233 _0088_
*234 _0089_
*235 _0090_
*236 _0091_
*237 _0092_
*238 _0093_
*239 _0094_
*240 _0095_
*241 _0096_
*242 _0097_
*243 _0098_
*244 _0099_
*245 _0100_
*246 _0101_
*247 _0102_
*248 _0103_
*249 _0104_
*250 _0105_
*251 _0106_
*252 _0107_
*253 _0108_
*254 _0109_
*255 _0110_
*256 _0111_
*257 _0112_
*258 _0113_
*259 _0114_
*260 _0115_
*261 _0116_
*262 _0117_
*263 _0118_
*264 _0119_
*265 _0120_
*266 _0121_
*267 _0122_
*268 _0123_
*269 _0124_
*270 _0125_
*271 _0126_
*272 _0127_
*273 _0128_
*274 _0129_
*275 _0130_
*276 _0131_
*277 _0132_
*278 _0133_
*279 _0134_
*280 _0135_
*281 _0136_
*282 _0137_
*283 _0138_
*284 _0139_
*285 _0140_
*286 _0141_
*287 _0142_
*288 _0143_
*289 _0144_
*290 _0145_
*291 _0146_
*292 _0147_
*293 _0148_
*294 _0149_
*295 _0150_
*296 _0151_
*297 _0152_
*298 _0153_
*299 _0154_
*300 _0155_
*301 _0156_
*302 _0157_
*303 _0158_
*304 _0159_
*305 _0160_
*306 _0161_
*307 _0162_
*308 _0163_
*309 _0164_
*310 _0165_
*311 _0166_
*312 _0167_
*313 _0168_
*314 _0169_
*315 _0170_
*316 _0171_
*317 _0172_
*318 _0173_
*319 _0174_
*320 _0175_
*321 _0176_
*322 _0177_
*323 _0178_
*324 _0179_
*325 _0180_
*326 _0181_
*327 _0182_
*328 _0183_
*329 _0184_
*330 _0185_
*331 _0186_
*332 _0187_
*333 _0188_
*334 _0189_
*335 _0190_
*336 _0191_
*337 _0192_
*338 _0193_
*339 _0194_
*340 _0195_
*341 _0196_
*342 _0197_
*343 _0198_
*344 _0199_
*345 _0200_
*346 _0201_
*347 _0202_
*348 _0203_
*349 _0204_
*350 _0205_
*351 _0206_
*352 _0207_
*353 _0208_
*354 _0209_
*355 _0210_
*356 _0211_
*357 _0212_
*358 _0213_
*359 _0214_
*360 _0215_
*361 _0216_
*362 _0217_
*363 _0218_
*364 _0219_
*365 _0220_
*366 _0221_
*367 _0222_
*368 _0223_
*369 _0224_
*370 _0225_
*371 _0226_
*372 _0227_
*373 _0228_
*374 _0229_
*375 _0230_
*376 _0231_
*377 _0232_
*378 _0233_
*379 _0234_
*380 _0235_
*381 _0236_
*382 _0237_
*383 _0238_
*384 _0239_
*385 _0240_
*386 _0241_
*387 _0242_
*388 _0243_
*389 _0244_
*390 _0245_
*391 _0246_
*392 _0247_
*393 _0248_
*394 _0249_
*395 _0250_
*396 _0251_
*397 _0252_
*398 _0253_
*399 _0254_
*400 _0255_
*401 _0256_
*402 _0257_
*403 _0258_
*404 _0259_
*405 _0260_
*406 _0261_
*407 _0262_
*408 _0263_
*409 _0264_
*410 _0265_
*411 _0266_
*412 _0267_
*413 _0268_
*414 _0269_
*415 _0270_
*416 _0271_
*417 _0272_
*418 _0273_
*419 _0274_
*420 _0275_
*421 _0276_
*422 _0277_
*423 _0278_
*424 _0279_
*425 _0280_
*426 _0281_
*427 _0282_
*428 _0283_
*429 _0284_
*430 _0285_
*431 _0286_
*432 _0287_
*433 _0288_
*434 _0289_
*435 _0290_
*436 _0291_
*437 _0292_
*438 _0293_
*439 _0294_
*440 _0295_
*441 _0296_
*442 _0297_
*443 _0298_
*444 _0299_
*445 _0300_
*446 _0301_
*447 _0302_
*448 _0303_
*449 _0304_
*450 _0305_
*451 _0306_
*452 _0307_
*453 _0308_
*454 _0309_
*455 _0310_
*456 _0311_
*457 _0312_
*458 _0313_
*459 _0314_
*460 _0315_
*461 _0316_
*462 _0317_
*463 _0318_
*464 _0319_
*465 _0320_
*466 _0321_
*467 _0322_
*468 _0323_
*469 _0324_
*470 _0325_
*471 _0326_
*472 _0327_
*473 _0328_
*474 _0329_
*475 _0330_
*476 _0331_
*477 _0332_
*478 _0333_
*479 _0334_
*480 _0335_
*481 _0336_
*482 _0337_
*483 _0338_
*484 _0339_
*485 _0340_
*486 _0341_
*487 _0342_
*488 _0343_
*489 _0344_
*490 _0345_
*491 _0346_
*492 _0347_
*493 _0348_
*494 _0349_
*495 _0350_
*496 _0351_
*497 _0352_
*498 _0353_
*499 _0354_
*500 _0355_
*501 _0356_
*502 _0357_
*503 clknet_0_prog_clk
*504 clknet_4_0_0_prog_clk
*505 clknet_4_10_0_prog_clk
*506 clknet_4_11_0_prog_clk
*507 clknet_4_12_0_prog_clk
*508 clknet_4_13_0_prog_clk
*509 clknet_4_14_0_prog_clk
*510 clknet_4_15_0_prog_clk
*511 clknet_4_1_0_prog_clk
*512 clknet_4_2_0_prog_clk
*513 clknet_4_3_0_prog_clk
*514 clknet_4_4_0_prog_clk
*515 clknet_4_5_0_prog_clk
*516 clknet_4_6_0_prog_clk
*517 clknet_4_7_0_prog_clk
*518 clknet_4_8_0_prog_clk
*519 clknet_4_9_0_prog_clk
*520 mem_bottom_track_1\.DFFR_0_\.D
*521 mem_bottom_track_1\.DFFR_0_\.Q
*522 mem_bottom_track_1\.DFFR_1_\.Q
*523 mem_bottom_track_1\.DFFR_2_\.Q
*524 mem_bottom_track_1\.DFFR_3_\.Q
*525 mem_bottom_track_1\.DFFR_4_\.Q
*526 mem_bottom_track_1\.DFFR_5_\.Q
*527 mem_bottom_track_11\.DFFR_0_\.D
*528 mem_bottom_track_11\.DFFR_0_\.Q
*529 mem_bottom_track_11\.DFFR_1_\.Q
*530 mem_bottom_track_13\.DFFR_0_\.Q
*531 mem_bottom_track_13\.DFFR_1_\.Q
*532 mem_bottom_track_15\.DFFR_0_\.Q
*533 mem_bottom_track_15\.DFFR_1_\.Q
*534 mem_bottom_track_17\.DFFR_0_\.Q
*535 mem_bottom_track_17\.DFFR_1_\.Q
*536 mem_bottom_track_19\.DFFR_0_\.Q
*537 mem_bottom_track_19\.DFFR_1_\.Q
*538 mem_bottom_track_21\.DFFR_0_\.Q
*539 mem_bottom_track_21\.DFFR_1_\.Q
*540 mem_bottom_track_23\.DFFR_0_\.Q
*541 mem_bottom_track_23\.DFFR_1_\.Q
*542 mem_bottom_track_25\.DFFR_0_\.Q
*543 mem_bottom_track_25\.DFFR_1_\.Q
*544 mem_bottom_track_27\.DFFR_0_\.Q
*545 mem_bottom_track_27\.DFFR_1_\.Q
*546 mem_bottom_track_3\.DFFR_0_\.Q
*547 mem_bottom_track_3\.DFFR_1_\.Q
*548 mem_bottom_track_3\.DFFR_2_\.Q
*549 mem_bottom_track_3\.DFFR_3_\.Q
*550 mem_bottom_track_3\.DFFR_4_\.Q
*551 mem_bottom_track_3\.DFFR_5_\.Q
*552 mem_bottom_track_37\.DFFR_0_\.Q
*553 mem_bottom_track_37\.DFFR_1_\.Q
*554 mem_bottom_track_5\.DFFR_0_\.Q
*555 mem_bottom_track_5\.DFFR_1_\.Q
*556 mem_bottom_track_5\.DFFR_2_\.Q
*557 mem_bottom_track_5\.DFFR_3_\.Q
*558 mem_bottom_track_5\.DFFR_4_\.Q
*559 mem_bottom_track_5\.DFFR_5_\.Q
*560 mem_bottom_track_7\.DFFR_0_\.Q
*561 mem_bottom_track_7\.DFFR_1_\.Q
*562 mem_bottom_track_7\.DFFR_2_\.Q
*563 mem_bottom_track_7\.DFFR_3_\.Q
*564 mem_bottom_track_7\.DFFR_4_\.Q
*565 mem_bottom_track_7\.DFFR_5_\.Q
*566 mem_bottom_track_9\.DFFR_0_\.Q
*567 mem_left_track_1\.DFFR_0_\.Q
*568 mem_left_track_1\.DFFR_1_\.Q
*569 mem_left_track_1\.DFFR_2_\.Q
*570 mem_left_track_1\.DFFR_3_\.Q
*571 mem_left_track_1\.DFFR_4_\.Q
*572 mem_left_track_1\.DFFR_5_\.Q
*573 mem_left_track_17\.DFFR_0_\.D
*574 mem_left_track_17\.DFFR_0_\.Q
*575 mem_left_track_17\.DFFR_1_\.Q
*576 mem_left_track_17\.DFFR_2_\.Q
*577 mem_left_track_17\.DFFR_3_\.Q
*578 mem_left_track_17\.DFFR_4_\.Q
*579 mem_left_track_17\.DFFR_5_\.Q
*580 mem_left_track_17\.DFFR_6_\.Q
*581 mem_left_track_17\.DFFR_7_\.Q
*582 mem_left_track_25\.DFFR_0_\.Q
*583 mem_left_track_25\.DFFR_1_\.Q
*584 mem_left_track_25\.DFFR_2_\.Q
*585 mem_left_track_25\.DFFR_3_\.Q
*586 mem_left_track_25\.DFFR_4_\.Q
*587 mem_left_track_25\.DFFR_5_\.Q
*588 mem_left_track_25\.DFFR_6_\.Q
*589 mem_left_track_25\.DFFR_7_\.Q
*590 mem_left_track_33\.DFFR_0_\.Q
*591 mem_left_track_33\.DFFR_1_\.Q
*592 mem_left_track_33\.DFFR_2_\.Q
*593 mem_left_track_33\.DFFR_3_\.Q
*594 mem_left_track_33\.DFFR_4_\.Q
*595 mem_left_track_9\.DFFR_0_\.Q
*596 mem_left_track_9\.DFFR_1_\.Q
*597 mem_left_track_9\.DFFR_2_\.Q
*598 mem_left_track_9\.DFFR_3_\.Q
*599 mem_left_track_9\.DFFR_4_\.Q
*600 mem_left_track_9\.DFFR_5_\.Q
*601 mem_left_track_9\.DFFR_6_\.Q
*602 mem_right_track_0\.DFFR_0_\.Q
*603 mem_right_track_0\.DFFR_1_\.Q
*604 mem_right_track_0\.DFFR_2_\.Q
*605 mem_right_track_0\.DFFR_3_\.Q
*606 mem_right_track_0\.DFFR_4_\.Q
*607 mem_right_track_0\.DFFR_5_\.Q
*608 mem_right_track_0\.DFFR_6_\.Q
*609 mem_right_track_0\.DFFR_7_\.Q
*610 mem_right_track_16\.DFFR_0_\.D
*611 mem_right_track_16\.DFFR_0_\.Q
*612 mem_right_track_16\.DFFR_1_\.Q
*613 mem_right_track_16\.DFFR_2_\.Q
*614 mem_right_track_16\.DFFR_3_\.Q
*615 mem_right_track_16\.DFFR_4_\.Q
*616 mem_right_track_16\.DFFR_5_\.Q
*617 mem_right_track_16\.DFFR_6_\.Q
*618 mem_right_track_16\.DFFR_7_\.Q
*619 mem_right_track_24\.DFFR_0_\.Q
*620 mem_right_track_24\.DFFR_1_\.Q
*621 mem_right_track_24\.DFFR_2_\.Q
*622 mem_right_track_24\.DFFR_3_\.Q
*623 mem_right_track_24\.DFFR_4_\.Q
*624 mem_right_track_24\.DFFR_5_\.Q
*625 mem_right_track_24\.DFFR_6_\.Q
*626 mem_right_track_24\.DFFR_7_\.Q
*627 mem_right_track_32\.DFFR_0_\.Q
*628 mem_right_track_32\.DFFR_1_\.Q
*629 mem_right_track_32\.DFFR_2_\.Q
*630 mem_right_track_32\.DFFR_3_\.Q
*631 mem_right_track_32\.DFFR_4_\.Q
*632 mem_right_track_8\.DFFR_0_\.Q
*633 mem_right_track_8\.DFFR_1_\.Q
*634 mem_right_track_8\.DFFR_2_\.Q
*635 mem_right_track_8\.DFFR_3_\.Q
*636 mem_right_track_8\.DFFR_4_\.Q
*637 mem_right_track_8\.DFFR_5_\.Q
*638 mem_right_track_8\.DFFR_6_\.Q
*639 mux_bottom_track_1\.INVTX1_0_\.out
*640 mux_bottom_track_1\.INVTX1_1_\.out
*641 mux_bottom_track_1\.INVTX1_2_\.out
*642 mux_bottom_track_1\.INVTX1_3_\.out
*643 mux_bottom_track_1\.mux_2level_tapbuf_basis_input3_mem3_0_out
*644 mux_bottom_track_1\.mux_2level_tapbuf_basis_input3_mem3_1_out
*645 mux_bottom_track_1\.out
*646 mux_bottom_track_11\.INVTX1_0_\.out
*647 mux_bottom_track_11\.INVTX1_1_\.out
*648 mux_bottom_track_11\.mux_2level_tapbuf_basis_input2_mem1_0_out
*649 mux_bottom_track_11\.mux_2level_tapbuf_basis_input2_mem1_1_out
*650 mux_bottom_track_11\.out
*651 mux_bottom_track_13\.INVTX1_0_\.out
*652 mux_bottom_track_13\.INVTX1_1_\.out
*653 mux_bottom_track_13\.mux_2level_tapbuf_basis_input2_mem1_0_out
*654 mux_bottom_track_13\.mux_2level_tapbuf_basis_input2_mem1_1_out
*655 mux_bottom_track_13\.out
*656 mux_bottom_track_15\.INVTX1_0_\.out
*657 mux_bottom_track_15\.INVTX1_1_\.out
*658 mux_bottom_track_15\.mux_2level_tapbuf_basis_input2_mem1_0_out
*659 mux_bottom_track_15\.mux_2level_tapbuf_basis_input2_mem1_1_out
*660 mux_bottom_track_15\.out
*661 mux_bottom_track_17\.INVTX1_0_\.out
*662 mux_bottom_track_17\.INVTX1_1_\.out
*663 mux_bottom_track_17\.mux_2level_tapbuf_basis_input2_mem1_0_out
*664 mux_bottom_track_17\.mux_2level_tapbuf_basis_input2_mem1_1_out
*665 mux_bottom_track_17\.out
*666 mux_bottom_track_19\.INVTX1_0_\.out
*667 mux_bottom_track_19\.INVTX1_2_\.out
*668 mux_bottom_track_19\.mux_2level_tapbuf_basis_input2_mem1_0_out
*669 mux_bottom_track_19\.mux_2level_tapbuf_basis_input2_mem1_1_out
*670 mux_bottom_track_19\.mux_2level_tapbuf_basis_input2_mem1_2_out
*671 mux_bottom_track_19\.out
*672 mux_bottom_track_21\.INVTX1_0_\.out
*673 mux_bottom_track_21\.INVTX1_1_\.out
*674 mux_bottom_track_21\.mux_2level_tapbuf_basis_input2_mem1_0_out
*675 mux_bottom_track_21\.mux_2level_tapbuf_basis_input2_mem1_1_out
*676 mux_bottom_track_21\.out
*677 mux_bottom_track_23\.INVTX1_0_\.out
*678 mux_bottom_track_23\.INVTX1_1_\.out
*679 mux_bottom_track_23\.INVTX1_2_\.out
*680 mux_bottom_track_23\.mux_2level_tapbuf_basis_input2_mem1_0_out
*681 mux_bottom_track_23\.mux_2level_tapbuf_basis_input2_mem1_1_out
*682 mux_bottom_track_23\.mux_2level_tapbuf_basis_input2_mem1_2_out
*683 mux_bottom_track_23\.out
*684 mux_bottom_track_25\.INVTX1_0_\.out
*685 mux_bottom_track_25\.INVTX1_1_\.out
*686 mux_bottom_track_25\.INVTX1_2_\.out
*687 mux_bottom_track_25\.mux_2level_tapbuf_basis_input2_mem1_0_out
*688 mux_bottom_track_25\.mux_2level_tapbuf_basis_input2_mem1_1_out
*689 mux_bottom_track_25\.mux_2level_tapbuf_basis_input2_mem1_2_out
*690 mux_bottom_track_25\.out
*691 mux_bottom_track_27\.INVTX1_0_\.out
*692 mux_bottom_track_27\.INVTX1_1_\.out
*693 mux_bottom_track_27\.INVTX1_2_\.out
*694 mux_bottom_track_27\.mux_2level_tapbuf_basis_input2_mem1_0_out
*695 mux_bottom_track_27\.mux_2level_tapbuf_basis_input2_mem1_1_out
*696 mux_bottom_track_27\.mux_2level_tapbuf_basis_input2_mem1_2_out
*697 mux_bottom_track_27\.out
*698 mux_bottom_track_3\.INVTX1_0_\.out
*699 mux_bottom_track_3\.INVTX1_1_\.out
*700 mux_bottom_track_3\.INVTX1_3_\.out
*701 mux_bottom_track_3\.INVTX1_4_\.out
*702 mux_bottom_track_3\.mux_2level_tapbuf_basis_input2_mem2_0_out
*703 mux_bottom_track_3\.mux_2level_tapbuf_basis_input3_mem3_0_out
*704 mux_bottom_track_3\.mux_2level_tapbuf_basis_input3_mem3_1_out
*705 mux_bottom_track_3\.out
*706 mux_bottom_track_37\.INVTX1_1_\.out
*707 mux_bottom_track_37\.mux_2level_tapbuf_basis_input2_mem1_0_out
*708 mux_bottom_track_37\.mux_2level_tapbuf_basis_input2_mem1_1_out
*709 mux_bottom_track_37\.out
*710 mux_bottom_track_5\.INVTX1_0_\.out
*711 mux_bottom_track_5\.INVTX1_3_\.out
*712 mux_bottom_track_5\.INVTX1_4_\.out
*713 mux_bottom_track_5\.mux_2level_tapbuf_basis_input2_mem2_0_out
*714 mux_bottom_track_5\.mux_2level_tapbuf_basis_input3_mem3_0_out
*715 mux_bottom_track_5\.mux_2level_tapbuf_basis_input3_mem3_1_out
*716 mux_bottom_track_5\.out
*717 mux_bottom_track_7\.INVTX1_0_\.out
*718 mux_bottom_track_7\.INVTX1_2_\.out
*719 mux_bottom_track_7\.INVTX1_3_\.out
*720 mux_bottom_track_7\.mux_2level_tapbuf_basis_input3_mem3_0_out
*721 mux_bottom_track_7\.mux_2level_tapbuf_basis_input3_mem3_1_out
*722 mux_bottom_track_7\.out
*723 mux_bottom_track_9\.INVTX1_0_\.out
*724 mux_bottom_track_9\.INVTX1_1_\.out
*725 mux_bottom_track_9\.mux_2level_tapbuf_basis_input2_mem1_0_out
*726 mux_bottom_track_9\.mux_2level_tapbuf_basis_input2_mem1_1_out
*727 mux_bottom_track_9\.out
*728 mux_left_track_1\.INVTX1_3_\.out
*729 mux_left_track_1\.INVTX1_4_\.out
*730 mux_left_track_1\.INVTX1_5_\.out
*731 mux_left_track_1\.INVTX1_6_\.out
*732 mux_left_track_1\.INVTX1_7_\.out
*733 mux_left_track_1\.mux_2level_tapbuf_basis_input3_mem3_0_out
*734 mux_left_track_1\.mux_2level_tapbuf_basis_input3_mem3_1_out
*735 mux_left_track_1\.mux_2level_tapbuf_basis_input3_mem3_2_out
*736 mux_left_track_1\.mux_2level_tapbuf_basis_input3_mem3_3_out
*737 mux_left_track_1\.out
*738 mux_left_track_17\.INVTX1_3_\.out
*739 mux_left_track_17\.INVTX1_4_\.out
*740 mux_left_track_17\.INVTX1_5_\.out
*741 mux_left_track_17\.INVTX1_6_\.out
*742 mux_left_track_17\.INVTX1_7_\.out
*743 mux_left_track_17\.INVTX1_8_\.out
*744 mux_left_track_17\.mux_2level_tapbuf_basis_input4_mem4_0_out
*745 mux_left_track_17\.mux_2level_tapbuf_basis_input4_mem4_1_out
*746 mux_left_track_17\.mux_2level_tapbuf_basis_input4_mem4_2_out
*747 mux_left_track_17\.out
*748 mux_left_track_25\.INVTX1_3_\.out
*749 mux_left_track_25\.INVTX1_4_\.out
*750 mux_left_track_25\.INVTX1_5_\.out
*751 mux_left_track_25\.INVTX1_6_\.out
*752 mux_left_track_25\.INVTX1_7_\.out
*753 mux_left_track_25\.INVTX1_8_\.out
*754 mux_left_track_25\.mux_2level_tapbuf_basis_input4_mem4_0_out
*755 mux_left_track_25\.mux_2level_tapbuf_basis_input4_mem4_1_out
*756 mux_left_track_25\.mux_2level_tapbuf_basis_input4_mem4_2_out
*757 mux_left_track_25\.out
*758 mux_left_track_33\.INVTX1_2_\.out
*759 mux_left_track_33\.INVTX1_3_\.out
*760 mux_left_track_33\.INVTX1_4_\.out
*761 mux_left_track_33\.INVTX1_5_\.out
*762 mux_left_track_33\.INVTX1_6_\.out
*763 mux_left_track_33\.INVTX1_7_\.out
*764 mux_left_track_33\.mux_2level_tapbuf_basis_input3_mem3_0_out
*765 mux_left_track_33\.mux_2level_tapbuf_basis_input3_mem3_1_out
*766 mux_left_track_33\.mux_2level_tapbuf_basis_input3_mem3_2_out
*767 mux_left_track_33\.mux_2level_tapbuf_basis_input3_mem3_3_out
*768 mux_left_track_33\.out
*769 mux_left_track_9\.INVTX1_3_\.out
*770 mux_left_track_9\.INVTX1_4_\.out
*771 mux_left_track_9\.INVTX1_5_\.out
*772 mux_left_track_9\.INVTX1_6_\.out
*773 mux_left_track_9\.INVTX1_7_\.out
*774 mux_left_track_9\.INVTX1_8_\.out
*775 mux_left_track_9\.mux_2level_tapbuf_basis_input4_mem4_0_out
*776 mux_left_track_9\.mux_2level_tapbuf_basis_input4_mem4_1_out
*777 mux_left_track_9\.mux_2level_tapbuf_basis_input4_mem4_2_out
*778 mux_left_track_9\.out
*779 mux_right_track_0\.INVTX1_0_\.out
*780 mux_right_track_0\.INVTX1_1_\.out
*781 mux_right_track_0\.mux_2level_tapbuf_basis_input4_mem4_0_out
*782 mux_right_track_0\.mux_2level_tapbuf_basis_input4_mem4_1_out
*783 mux_right_track_0\.mux_2level_tapbuf_basis_input4_mem4_2_out
*784 mux_right_track_0\.out
*785 mux_right_track_16\.INVTX1_0_\.out
*786 mux_right_track_16\.INVTX1_1_\.out
*787 mux_right_track_16\.mux_2level_tapbuf_basis_input4_mem4_0_out
*788 mux_right_track_16\.mux_2level_tapbuf_basis_input4_mem4_1_out
*789 mux_right_track_16\.mux_2level_tapbuf_basis_input4_mem4_2_out
*790 mux_right_track_16\.out
*791 mux_right_track_24\.INVTX1_0_\.out
*792 mux_right_track_24\.INVTX1_1_\.out
*793 mux_right_track_24\.mux_2level_tapbuf_basis_input4_mem4_0_out
*794 mux_right_track_24\.mux_2level_tapbuf_basis_input4_mem4_1_out
*795 mux_right_track_24\.mux_2level_tapbuf_basis_input4_mem4_2_out
*796 mux_right_track_24\.out
*797 mux_right_track_32\.INVTX1_0_\.out
*798 mux_right_track_32\.INVTX1_1_\.out
*799 mux_right_track_32\.mux_2level_tapbuf_basis_input2_mem2_0_out
*800 mux_right_track_32\.mux_2level_tapbuf_basis_input3_mem3_0_out
*801 mux_right_track_32\.mux_2level_tapbuf_basis_input3_mem3_1_out
*802 mux_right_track_32\.mux_2level_tapbuf_basis_input3_mem3_2_out
*803 mux_right_track_32\.out
*804 mux_right_track_8\.INVTX1_0_\.out
*805 mux_right_track_8\.INVTX1_1_\.out
*806 mux_right_track_8\.mux_2level_tapbuf_basis_input4_mem4_0_out
*807 mux_right_track_8\.mux_2level_tapbuf_basis_input4_mem4_1_out
*808 mux_right_track_8\.mux_2level_tapbuf_basis_input4_mem4_2_out
*809 mux_right_track_8\.out
*810 net1
*811 net10
*812 net100
*813 net101
*814 net102
*815 net103
*816 net104
*817 net105
*818 net106
*819 net107
*820 net108
*821 net109
*822 net11
*823 net110
*824 net111
*825 net112
*826 net113
*827 net114
*828 net115
*829 net116
*830 net117
*831 net118
*832 net119
*833 net12
*834 net120
*835 net121
*836 net122
*837 net123
*838 net124
*839 net125
*840 net126
*841 net127
*842 net128
*843 net129
*844 net13
*845 net130
*846 net131
*847 net132
*848 net133
*849 net134
*850 net135
*851 net136
*852 net137
*853 net138
*854 net139
*855 net14
*856 net140
*857 net141
*858 net142
*859 net143
*860 net144
*861 net145
*862 net146
*863 net147
*864 net148
*865 net149
*866 net15
*867 net150
*868 net151
*869 net152
*870 net153
*871 net154
*872 net155
*873 net156
*874 net157
*875 net158
*876 net159
*877 net16
*878 net160
*879 net161
*880 net162
*881 net163
*882 net164
*883 net165
*884 net166
*885 net17
*886 net18
*887 net19
*888 net2
*889 net20
*890 net21
*891 net22
*892 net23
*893 net24
*894 net25
*895 net26
*896 net27
*897 net28
*898 net29
*899 net3
*900 net30
*901 net31
*902 net32
*903 net33
*904 net34
*905 net35
*906 net36
*907 net37
*908 net38
*909 net39
*910 net4
*911 net40
*912 net41
*913 net42
*914 net43
*915 net44
*916 net45
*917 net46
*918 net47
*919 net48
*920 net49
*921 net5
*922 net50
*923 net51
*924 net52
*925 net53
*926 net54
*927 net55
*928 net56
*929 net57
*930 net58
*931 net59
*932 net6
*933 net60
*934 net61
*935 net62
*936 net63
*937 net64
*938 net65
*939 net66
*940 net67
*941 net68
*942 net69
*943 net7
*944 net70
*945 net71
*946 net72
*947 net73
*948 net74
*949 net75
*950 net76
*951 net77
*952 net78
*953 net79
*954 net8
*955 net80
*956 net81
*957 net82
*958 net83
*959 net84
*960 net85
*961 net86
*962 net87
*963 net88
*964 net89
*965 net9
*966 net90
*967 net91
*968 net92
*969 net93
*970 net94
*971 net95
*972 net96
*973 net97
*974 net98
*975 net99
*976 ANTENNA_1
*977 ANTENNA_2
*978 FILLER_0_110
*979 FILLER_0_113
*980 FILLER_0_117
*981 FILLER_0_138
*982 FILLER_0_141
*983 FILLER_0_145
*984 FILLER_0_166
*985 FILLER_0_169
*986 FILLER_0_173
*987 FILLER_0_194
*988 FILLER_0_197
*989 FILLER_0_219
*990 FILLER_0_223
*991 FILLER_0_225
*992 FILLER_0_229
*993 FILLER_0_243
*994 FILLER_0_250
*995 FILLER_0_253
*996 FILLER_0_258
*997 FILLER_0_26
*998 FILLER_0_265
*999 FILLER_0_273
*1000 FILLER_0_279
*1001 FILLER_0_281
*1002 FILLER_0_286
*1003 FILLER_0_29
*1004 FILLER_0_3
*1005 FILLER_0_300
*1006 FILLER_0_309
*1007 FILLER_0_321
*1008 FILLER_0_329
*1009 FILLER_0_33
*1010 FILLER_0_335
*1011 FILLER_0_337
*1012 FILLER_0_343
*1013 FILLER_0_351
*1014 FILLER_0_357
*1015 FILLER_0_363
*1016 FILLER_0_365
*1017 FILLER_0_371
*1018 FILLER_0_377
*1019 FILLER_0_382
*1020 FILLER_0_390
*1021 FILLER_0_393
*1022 FILLER_0_405
*1023 FILLER_0_54
*1024 FILLER_0_57
*1025 FILLER_0_61
*1026 FILLER_0_82
*1027 FILLER_0_85
*1028 FILLER_0_89
*1029 FILLER_10_105
*1030 FILLER_10_11
*1031 FILLER_10_128
*1032 FILLER_10_135
*1033 FILLER_10_139
*1034 FILLER_10_141
*1035 FILLER_10_147
*1036 FILLER_10_159
*1037 FILLER_10_163
*1038 FILLER_10_18
*1039 FILLER_10_185
*1040 FILLER_10_192
*1041 FILLER_10_197
*1042 FILLER_10_223
*1043 FILLER_10_235
*1044 FILLER_10_241
*1045 FILLER_10_245
*1046 FILLER_10_25
*1047 FILLER_10_251
*1048 FILLER_10_253
*1049 FILLER_10_268
*1050 FILLER_10_283
*1051 FILLER_10_29
*1052 FILLER_10_290
*1053 FILLER_10_296
*1054 FILLER_10_3
*1055 FILLER_10_306
*1056 FILLER_10_309
*1057 FILLER_10_321
*1058 FILLER_10_333
*1059 FILLER_10_34
*1060 FILLER_10_345
*1061 FILLER_10_357
*1062 FILLER_10_363
*1063 FILLER_10_365
*1064 FILLER_10_377
*1065 FILLER_10_389
*1066 FILLER_10_405
*1067 FILLER_10_58
*1068 FILLER_10_7
*1069 FILLER_10_82
*1070 FILLER_10_85
*1071 FILLER_10_97
*1072 FILLER_11_110
*1073 FILLER_11_113
*1074 FILLER_11_126
*1075 FILLER_11_130
*1076 FILLER_11_14
*1077 FILLER_11_152
*1078 FILLER_11_164
*1079 FILLER_11_169
*1080 FILLER_11_196
*1081 FILLER_11_21
*1082 FILLER_11_221
*1083 FILLER_11_225
*1084 FILLER_11_237
*1085 FILLER_11_256
*1086 FILLER_11_273
*1087 FILLER_11_279
*1088 FILLER_11_28
*1089 FILLER_11_281
*1090 FILLER_11_291
*1091 FILLER_11_298
*1092 FILLER_11_3
*1093 FILLER_11_305
*1094 FILLER_11_312
*1095 FILLER_11_324
*1096 FILLER_11_337
*1097 FILLER_11_349
*1098 FILLER_11_361
*1099 FILLER_11_373
*1100 FILLER_11_379
*1101 FILLER_11_383
*1102 FILLER_11_391
*1103 FILLER_11_393
*1104 FILLER_11_405
*1105 FILLER_11_54
*1106 FILLER_11_57
*1107 FILLER_11_65
*1108 FILLER_11_86
*1109 FILLER_11_9
*1110 FILLER_12_113
*1111 FILLER_12_13
*1112 FILLER_12_138
*1113 FILLER_12_141
*1114 FILLER_12_146
*1115 FILLER_12_173
*1116 FILLER_12_185
*1117 FILLER_12_191
*1118 FILLER_12_195
*1119 FILLER_12_197
*1120 FILLER_12_20
*1121 FILLER_12_226
*1122 FILLER_12_250
*1123 FILLER_12_253
*1124 FILLER_12_258
*1125 FILLER_12_265
*1126 FILLER_12_284
*1127 FILLER_12_29
*1128 FILLER_12_296
*1129 FILLER_12_3
*1130 FILLER_12_309
*1131 FILLER_12_321
*1132 FILLER_12_333
*1133 FILLER_12_34
*1134 FILLER_12_345
*1135 FILLER_12_357
*1136 FILLER_12_363
*1137 FILLER_12_365
*1138 FILLER_12_370
*1139 FILLER_12_382
*1140 FILLER_12_394
*1141 FILLER_12_40
*1142 FILLER_12_400
*1143 FILLER_12_405
*1144 FILLER_12_44
*1145 FILLER_12_51
*1146 FILLER_12_59
*1147 FILLER_12_81
*1148 FILLER_12_85
*1149 FILLER_12_9
*1150 FILLER_13_11
*1151 FILLER_13_110
*1152 FILLER_13_113
*1153 FILLER_13_118
*1154 FILLER_13_127
*1155 FILLER_13_152
*1156 FILLER_13_159
*1157 FILLER_13_166
*1158 FILLER_13_169
*1159 FILLER_13_18
*1160 FILLER_13_191
*1161 FILLER_13_199
*1162 FILLER_13_222
*1163 FILLER_13_225
*1164 FILLER_13_235
*1165 FILLER_13_242
*1166 FILLER_13_248
*1167 FILLER_13_25
*1168 FILLER_13_252
*1169 FILLER_13_265
*1170 FILLER_13_272
*1171 FILLER_13_281
*1172 FILLER_13_298
*1173 FILLER_13_3
*1174 FILLER_13_305
*1175 FILLER_13_311
*1176 FILLER_13_315
*1177 FILLER_13_327
*1178 FILLER_13_33
*1179 FILLER_13_335
*1180 FILLER_13_337
*1181 FILLER_13_349
*1182 FILLER_13_361
*1183 FILLER_13_373
*1184 FILLER_13_385
*1185 FILLER_13_391
*1186 FILLER_13_393
*1187 FILLER_13_405
*1188 FILLER_13_54
*1189 FILLER_13_57
*1190 FILLER_13_65
*1191 FILLER_13_7
*1192 FILLER_13_86
*1193 FILLER_14_11
*1194 FILLER_14_113
*1195 FILLER_14_138
*1196 FILLER_14_141
*1197 FILLER_14_154
*1198 FILLER_14_160
*1199 FILLER_14_18
*1200 FILLER_14_181
*1201 FILLER_14_188
*1202 FILLER_14_197
*1203 FILLER_14_221
*1204 FILLER_14_236
*1205 FILLER_14_249
*1206 FILLER_14_25
*1207 FILLER_14_253
*1208 FILLER_14_258
*1209 FILLER_14_265
*1210 FILLER_14_277
*1211 FILLER_14_285
*1212 FILLER_14_289
*1213 FILLER_14_29
*1214 FILLER_14_3
*1215 FILLER_14_301
*1216 FILLER_14_307
*1217 FILLER_14_309
*1218 FILLER_14_320
*1219 FILLER_14_332
*1220 FILLER_14_34
*1221 FILLER_14_344
*1222 FILLER_14_356
*1223 FILLER_14_365
*1224 FILLER_14_377
*1225 FILLER_14_389
*1226 FILLER_14_397
*1227 FILLER_14_402
*1228 FILLER_14_406
*1229 FILLER_14_46
*1230 FILLER_14_51
*1231 FILLER_14_58
*1232 FILLER_14_7
*1233 FILLER_14_82
*1234 FILLER_14_85
*1235 FILLER_15_101
*1236 FILLER_15_108
*1237 FILLER_15_113
*1238 FILLER_15_119
*1239 FILLER_15_128
*1240 FILLER_15_13
*1241 FILLER_15_153
*1242 FILLER_15_161
*1243 FILLER_15_166
*1244 FILLER_15_169
*1245 FILLER_15_192
*1246 FILLER_15_196
*1247 FILLER_15_220
*1248 FILLER_15_225
*1249 FILLER_15_247
*1250 FILLER_15_25
*1251 FILLER_15_259
*1252 FILLER_15_271
*1253 FILLER_15_279
*1254 FILLER_15_281
*1255 FILLER_15_286
*1256 FILLER_15_299
*1257 FILLER_15_3
*1258 FILLER_15_311
*1259 FILLER_15_323
*1260 FILLER_15_335
*1261 FILLER_15_337
*1262 FILLER_15_349
*1263 FILLER_15_36
*1264 FILLER_15_361
*1265 FILLER_15_373
*1266 FILLER_15_385
*1267 FILLER_15_391
*1268 FILLER_15_393
*1269 FILLER_15_405
*1270 FILLER_15_47
*1271 FILLER_15_54
*1272 FILLER_15_57
*1273 FILLER_15_62
*1274 FILLER_15_69
*1275 FILLER_15_94
*1276 FILLER_16_126
*1277 FILLER_16_132
*1278 FILLER_16_136
*1279 FILLER_16_141
*1280 FILLER_16_15
*1281 FILLER_16_164
*1282 FILLER_16_189
*1283 FILLER_16_195
*1284 FILLER_16_197
*1285 FILLER_16_201
*1286 FILLER_16_22
*1287 FILLER_16_223
*1288 FILLER_16_247
*1289 FILLER_16_251
*1290 FILLER_16_253