*SPEF "ieee 1481-1999"
*DESIGN "sb_1__0_"
*DATE "11:11:11 Fri 11 11, 1111"
*VENDOR "OpenRCX"
*PROGRAM "Parallel Extraction"
*VERSION "1.0"
*DESIGN_FLOW "NAME_SCOPE LOCAL" "PIN_CAP NONE"
*DIVIDER /
*DELIMITER :
*BUS_DELIMITER []
*T_UNIT 1 NS
*C_UNIT 1 PF
*R_UNIT 1 OHM
*L_UNIT 1 HENRY

*NAME_MAP
*1 ccff_head
*2 ccff_tail
*3 chanx_left_in[0]
*4 chanx_left_in[10]
*5 chanx_left_in[11]
*6 chanx_left_in[12]
*7 chanx_left_in[13]
*8 chanx_left_in[14]
*9 chanx_left_in[15]
*10 chanx_left_in[16]
*11 chanx_left_in[17]
*12 chanx_left_in[18]
*13 chanx_left_in[1]
*14 chanx_left_in[2]
*15 chanx_left_in[3]
*16 chanx_left_in[4]
*17 chanx_left_in[5]
*18 chanx_left_in[6]
*19 chanx_left_in[7]
*20 chanx_left_in[8]
*21 chanx_left_in[9]
*22 chanx_left_out[0]
*23 chanx_left_out[10]
*24 chanx_left_out[11]
*25 chanx_left_out[12]
*26 chanx_left_out[13]
*27 chanx_left_out[14]
*28 chanx_left_out[15]
*29 chanx_left_out[16]
*30 chanx_left_out[17]
*31 chanx_left_out[18]
*32 chanx_left_out[1]
*33 chanx_left_out[2]
*34 chanx_left_out[3]
*35 chanx_left_out[4]
*36 chanx_left_out[5]
*37 chanx_left_out[6]
*38 chanx_left_out[7]
*39 chanx_left_out[8]
*40 chanx_left_out[9]
*41 chanx_right_in[0]
*42 chanx_right_in[10]
*43 chanx_right_in[11]
*44 chanx_right_in[12]
*45 chanx_right_in[13]
*46 chanx_right_in[14]
*47 chanx_right_in[15]
*48 chanx_right_in[16]
*49 chanx_right_in[17]
*50 chanx_right_in[18]
*51 chanx_right_in[1]
*52 chanx_right_in[2]
*53 chanx_right_in[3]
*54 chanx_right_in[4]
*55 chanx_right_in[5]
*56 chanx_right_in[6]
*57 chanx_right_in[7]
*58 chanx_right_in[8]
*59 chanx_right_in[9]
*60 chanx_right_out[0]
*61 chanx_right_out[10]
*62 chanx_right_out[11]
*63 chanx_right_out[12]
*64 chanx_right_out[13]
*65 chanx_right_out[14]
*66 chanx_right_out[15]
*67 chanx_right_out[16]
*68 chanx_right_out[17]
*69 chanx_right_out[18]
*70 chanx_right_out[1]
*71 chanx_right_out[2]
*72 chanx_right_out[3]
*73 chanx_right_out[4]
*74 chanx_right_out[5]
*75 chanx_right_out[6]
*76 chanx_right_out[7]
*77 chanx_right_out[8]
*78 chanx_right_out[9]
*79 chany_top_in[0]
*80 chany_top_in[10]
*81 chany_top_in[11]
*82 chany_top_in[12]
*83 chany_top_in[13]
*84 chany_top_in[14]
*85 chany_top_in[15]
*86 chany_top_in[16]
*87 chany_top_in[17]
*88 chany_top_in[18]
*89 chany_top_in[1]
*90 chany_top_in[2]
*91 chany_top_in[3]
*92 chany_top_in[4]
*93 chany_top_in[5]
*94 chany_top_in[6]
*95 chany_top_in[7]
*96 chany_top_in[8]
*97 chany_top_in[9]
*98 chany_top_out[0]
*99 chany_top_out[10]
*100 chany_top_out[11]
*101 chany_top_out[12]
*102 chany_top_out[13]
*103 net141
*104 chany_top_out[15]
*105 chany_top_out[16]
*106 chany_top_out[17]
*107 chany_top_out[18]
*108 chany_top_out[1]
*109 chany_top_out[2]
*110 chany_top_out[3]
*111 chany_top_out[4]
*112 chany_top_out[5]
*113 chany_top_out[6]
*114 chany_top_out[7]
*115 chany_top_out[8]
*116 chany_top_out[9]
*117 left_bottom_grid_top_width_0_height_0_subtile_0__pin_inpad_0_
*118 left_bottom_grid_top_width_0_height_0_subtile_1__pin_inpad_0_
*119 left_bottom_grid_top_width_0_height_0_subtile_2__pin_inpad_0_
*120 left_bottom_grid_top_width_0_height_0_subtile_3__pin_inpad_0_
*121 left_bottom_grid_top_width_0_height_0_subtile_4__pin_inpad_0_
*122 left_bottom_grid_top_width_0_height_0_subtile_5__pin_inpad_0_
*123 left_bottom_grid_top_width_0_height_0_subtile_6__pin_inpad_0_
*124 left_bottom_grid_top_width_0_height_0_subtile_7__pin_inpad_0_
*125 left_top_grid_bottom_width_0_height_0_subtile_0__pin_O_2_
*126 left_top_grid_bottom_width_0_height_0_subtile_0__pin_O_6_
*127 pReset
*128 prog_clk
*129 right_bottom_grid_top_width_0_height_0_subtile_0__pin_inpad_0_
*130 right_bottom_grid_top_width_0_height_0_subtile_1__pin_inpad_0_
*131 right_bottom_grid_top_width_0_height_0_subtile_2__pin_inpad_0_
*132 right_bottom_grid_top_width_0_height_0_subtile_3__pin_inpad_0_
*133 right_bottom_grid_top_width_0_height_0_subtile_4__pin_inpad_0_
*134 right_bottom_grid_top_width_0_height_0_subtile_5__pin_inpad_0_
*135 right_bottom_grid_top_width_0_height_0_subtile_6__pin_inpad_0_
*136 right_bottom_grid_top_width_0_height_0_subtile_7__pin_inpad_0_
*137 right_top_grid_bottom_width_0_height_0_subtile_0__pin_O_2_
*138 right_top_grid_bottom_width_0_height_0_subtile_0__pin_O_6_
*139 top_left_grid_right_width_0_height_0_subtile_0__pin_O_1_
*140 top_left_grid_right_width_0_height_0_subtile_0__pin_O_5_
*141 top_right_grid_left_width_0_height_0_subtile_0__pin_O_3_
*142 top_right_grid_left_width_0_height_0_subtile_0__pin_O_7_
*145 _0000_
*146 _0001_
*147 _0002_
*148 _0003_
*149 _0004_
*150 _0005_
*151 _0006_
*152 _0007_
*153 _0008_
*154 _0009_
*155 _0010_
*156 _0011_
*157 _0012_
*158 _0013_
*159 _0014_
*160 _0015_
*161 _0016_
*162 _0017_
*163 _0018_
*164 _0019_
*165 _0020_
*166 _0021_
*167 _0022_
*168 _0023_
*169 _0024_
*170 _0025_
*171 _0026_
*172 _0027_
*173 _0028_
*174 _0029_
*175 _0030_
*176 _0031_
*177 _0032_
*178 _0033_
*179 _0034_
*180 _0035_
*181 _0036_
*182 _0037_
*183 _0038_
*184 _0039_
*185 _0040_
*186 _0041_
*187 _0042_
*188 _0043_
*189 _0044_
*190 _0045_
*191 _0046_
*192 _0047_
*193 _0048_
*194 _0049_
*195 _0050_
*196 _0051_
*197 _0052_
*198 _0053_
*199 _0054_
*200 _0055_
*201 _0056_
*202 _0057_
*203 _0058_
*204 _0059_
*205 _0060_
*206 _0061_
*207 _0062_
*208 _0063_
*209 _0064_
*210 _0065_
*211 _0066_
*212 _0067_
*213 _0068_
*214 _0069_
*215 _0070_
*216 _0071_
*217 _0072_
*218 _0073_
*219 _0074_
*220 _0075_
*221 _0076_
*222 _0077_
*223 _0078_
*224 _0079_
*225 _0080_
*226 _0081_
*227 _0082_
*228 _0083_
*229 _0084_
*230 _0085_
*231 _0086_
*232 _0087_
*233 _0088_
*234 _0089_
*235 _0090_
*236 _0091_
*237 _0092_
*238 _0093_
*239 _0094_
*240 _0095_
*241 _0096_
*242 _0097_
*243 _0098_
*244 _0099_
*245 _0100_
*246 _0101_
*247 _0102_
*248 _0103_
*249 _0104_
*250 _0105_
*251 _0106_
*252 _0107_
*253 _0108_
*254 _0109_
*255 _0110_
*256 _0111_
*257 _0112_
*258 _0113_
*259 _0114_
*260 _0115_
*261 _0116_
*262 _0117_
*263 _0118_
*264 _0119_
*265 _0120_
*266 _0121_
*267 _0122_
*268 _0123_
*269 _0124_
*270 _0125_
*271 _0126_
*272 _0127_
*273 _0128_
*274 _0129_
*275 _0130_
*276 _0131_
*277 _0132_
*278 _0133_
*279 _0134_
*280 _0135_
*281 _0136_
*282 _0137_
*283 _0138_
*284 _0139_
*285 _0140_
*286 _0141_
*287 _0142_
*288 _0143_
*289 _0144_
*290 _0145_
*291 _0146_
*292 _0147_
*293 _0148_
*294 _0149_
*295 _0150_
*296 _0151_
*297 _0152_
*298 _0153_
*299 _0154_
*300 _0155_
*301 _0156_
*302 _0157_
*303 _0158_
*304 _0159_
*305 _0160_
*306 _0161_
*307 _0162_
*308 _0163_
*309 _0164_
*310 _0165_
*311 _0166_
*312 _0167_
*313 _0168_
*314 _0169_
*315 _0170_
*316 _0171_
*317 _0172_
*318 _0173_
*319 _0174_
*320 _0175_
*321 _0176_
*322 _0177_
*323 _0178_
*324 _0179_
*325 _0180_
*326 _0181_
*327 _0182_
*328 _0183_
*329 _0184_
*330 _0185_
*331 _0186_
*332 _0187_
*333 _0188_
*334 _0189_
*335 _0190_
*336 _0191_
*337 _0192_
*338 _0193_
*339 _0194_
*340 _0195_
*341 _0196_
*342 _0197_
*343 _0198_
*344 _0199_
*345 _0200_
*346 _0201_
*347 _0202_
*348 _0203_
*349 _0204_
*350 _0205_
*351 _0206_
*352 _0207_
*353 _0208_
*354 _0209_
*355 _0210_
*356 _0211_
*357 _0212_
*358 _0213_
*359 _0214_
*360 _0215_
*361 _0216_
*362 _0217_
*363 _0218_
*364 _0219_
*365 _0220_
*366 _0221_
*367 _0222_
*368 _0223_
*369 _0224_
*370 _0225_
*371 _0226_
*372 _0227_
*373 _0228_
*374 _0229_
*375 _0230_
*376 _0231_
*377 _0232_
*378 _0233_
*379 _0234_
*380 _0235_
*381 _0236_
*382 _0237_
*383 _0238_
*384 _0239_
*385 _0240_
*386 _0241_
*387 _0242_
*388 _0243_
*389 _0244_
*390 _0245_
*391 _0246_
*392 _0247_
*393 _0248_
*394 _0249_
*395 _0250_
*396 _0251_
*397 _0252_
*398 _0253_
*399 _0254_
*400 _0255_
*401 _0256_
*402 _0257_
*403 _0258_
*404 _0259_
*405 _0260_
*406 _0261_
*407 _0262_
*408 _0263_
*409 _0264_
*410 _0265_
*411 _0266_
*412 _0267_
*413 _0268_
*414 _0269_
*415 _0270_
*416 _0271_
*417 _0272_
*418 _0273_
*419 _0274_
*420 _0275_
*421 _0276_
*422 _0277_
*423 _0278_
*424 _0279_
*425 _0280_
*426 _0281_
*427 _0282_
*428 _0283_
*429 _0284_
*430 _0285_
*431 _0286_
*432 _0287_
*433 _0288_
*434 _0289_
*435 _0290_
*436 _0291_
*437 _0292_
*438 _0293_
*439 _0294_
*440 _0295_
*441 _0296_
*442 _0297_
*443 _0298_
*444 _0299_
*445 _0300_
*446 _0301_
*447 _0302_
*448 _0303_
*449 _0304_
*450 _0305_
*451 _0306_
*452 _0307_
*453 _0308_
*454 _0309_
*455 _0310_
*456 _0311_
*457 _0312_
*458 _0313_
*459 _0314_
*460 _0315_
*461 _0316_
*462 _0317_
*463 _0318_
*464 _0319_
*465 _0320_
*466 _0321_
*467 _0322_
*468 _0323_
*469 _0324_
*470 _0325_
*471 _0326_
*472 _0327_
*473 _0328_
*474 _0329_
*475 _0330_
*476 _0331_
*477 _0332_
*478 _0333_
*479 _0334_
*480 _0335_
*481 _0336_
*482 _0337_
*483 _0338_
*484 _0339_
*485 _0340_
*486 _0341_
*487 _0342_
*488 _0343_
*489 _0344_
*490 _0345_
*491 _0346_
*492 _0347_
*493 _0348_
*494 _0349_
*495 _0350_
*496 _0351_
*497 _0352_
*498 _0353_
*499 _0354_
*500 _0355_
*501 _0356_
*502 _0357_
*503 clknet_0_prog_clk
*504 clknet_4_0_0_prog_clk
*505 clknet_4_10_0_prog_clk
*506 clknet_4_11_0_prog_clk
*507 clknet_4_12_0_prog_clk
*508 clknet_4_13_0_prog_clk
*509 clknet_4_14_0_prog_clk
*510 clknet_4_15_0_prog_clk
*511 clknet_4_1_0_prog_clk
*512 clknet_4_2_0_prog_clk
*513 clknet_4_3_0_prog_clk
*514 clknet_4_4_0_prog_clk
*515 clknet_4_5_0_prog_clk
*516 clknet_4_6_0_prog_clk
*517 clknet_4_7_0_prog_clk
*518 clknet_4_8_0_prog_clk
*519 clknet_4_9_0_prog_clk
*520 mem_left_track_1\.DFFR_0_\.D
*521 mem_left_track_1\.DFFR_0_\.Q
*522 mem_left_track_1\.DFFR_1_\.Q
*523 mem_left_track_1\.DFFR_2_\.Q
*524 mem_left_track_1\.DFFR_3_\.Q
*525 mem_left_track_1\.DFFR_4_\.Q
*526 mem_left_track_1\.DFFR_5_\.Q
*527 mem_left_track_1\.DFFR_6_\.Q
*528 mem_left_track_1\.DFFR_7_\.Q
*529 mem_left_track_17\.DFFR_0_\.D
*530 mem_left_track_17\.DFFR_0_\.Q
*531 mem_left_track_17\.DFFR_1_\.Q
*532 mem_left_track_17\.DFFR_2_\.Q
*533 mem_left_track_17\.DFFR_3_\.Q
*534 mem_left_track_17\.DFFR_4_\.Q
*535 mem_left_track_17\.DFFR_5_\.Q
*536 mem_left_track_17\.DFFR_6_\.Q
*537 mem_left_track_17\.DFFR_7_\.Q
*538 mem_left_track_25\.DFFR_0_\.Q
*539 mem_left_track_25\.DFFR_1_\.Q
*540 mem_left_track_25\.DFFR_2_\.Q
*541 mem_left_track_25\.DFFR_3_\.Q
*542 mem_left_track_25\.DFFR_4_\.Q
*543 mem_left_track_25\.DFFR_5_\.Q
*544 mem_left_track_25\.DFFR_6_\.Q
*545 mem_left_track_25\.DFFR_7_\.Q
*546 mem_left_track_33\.DFFR_0_\.Q
*547 mem_left_track_33\.DFFR_1_\.Q
*548 mem_left_track_33\.DFFR_2_\.Q
*549 mem_left_track_33\.DFFR_3_\.Q
*550 mem_left_track_33\.DFFR_4_\.Q
*551 mem_left_track_9\.DFFR_0_\.Q
*552 mem_left_track_9\.DFFR_1_\.Q
*553 mem_left_track_9\.DFFR_2_\.Q
*554 mem_left_track_9\.DFFR_3_\.Q
*555 mem_left_track_9\.DFFR_4_\.Q
*556 mem_right_track_0\.DFFR_0_\.D
*557 mem_right_track_0\.DFFR_0_\.Q
*558 mem_right_track_0\.DFFR_1_\.Q
*559 mem_right_track_0\.DFFR_2_\.Q
*560 mem_right_track_0\.DFFR_3_\.Q
*561 mem_right_track_0\.DFFR_4_\.Q
*562 mem_right_track_0\.DFFR_5_\.Q
*563 mem_right_track_16\.DFFR_0_\.D
*564 mem_right_track_16\.DFFR_0_\.Q
*565 mem_right_track_16\.DFFR_1_\.Q
*566 mem_right_track_16\.DFFR_2_\.Q
*567 mem_right_track_16\.DFFR_3_\.Q
*568 mem_right_track_16\.DFFR_4_\.Q
*569 mem_right_track_16\.DFFR_5_\.Q
*570 mem_right_track_16\.DFFR_6_\.Q
*571 mem_right_track_16\.DFFR_7_\.Q
*572 mem_right_track_24\.DFFR_0_\.Q
*573 mem_right_track_24\.DFFR_1_\.Q
*574 mem_right_track_24\.DFFR_2_\.Q
*575 mem_right_track_24\.DFFR_3_\.Q
*576 mem_right_track_24\.DFFR_4_\.Q
*577 mem_right_track_24\.DFFR_5_\.Q
*578 mem_right_track_24\.DFFR_6_\.Q
*579 mem_right_track_24\.DFFR_7_\.Q
*580 mem_right_track_32\.DFFR_0_\.Q
*581 mem_right_track_32\.DFFR_1_\.Q
*582 mem_right_track_32\.DFFR_2_\.Q
*583 mem_right_track_32\.DFFR_3_\.Q
*584 mem_right_track_32\.DFFR_4_\.Q
*585 mem_right_track_8\.DFFR_0_\.Q
*586 mem_right_track_8\.DFFR_1_\.Q
*587 mem_right_track_8\.DFFR_2_\.Q
*588 mem_right_track_8\.DFFR_3_\.Q
*589 mem_right_track_8\.DFFR_4_\.Q
*590 mem_right_track_8\.DFFR_5_\.Q
*591 mem_right_track_8\.DFFR_6_\.Q
*592 mem_top_track_0\.DFFR_0_\.Q
*593 mem_top_track_0\.DFFR_1_\.Q
*594 mem_top_track_0\.DFFR_2_\.Q
*595 mem_top_track_0\.DFFR_3_\.Q
*596 mem_top_track_0\.DFFR_4_\.Q
*597 mem_top_track_0\.DFFR_5_\.Q
*598 mem_top_track_10\.DFFR_0_\.D
*599 mem_top_track_10\.DFFR_0_\.Q
*600 mem_top_track_10\.DFFR_1_\.Q
*601 mem_top_track_12\.DFFR_0_\.Q
*602 mem_top_track_12\.DFFR_1_\.Q
*603 mem_top_track_14\.DFFR_0_\.Q
*604 mem_top_track_14\.DFFR_1_\.Q
*605 mem_top_track_16\.DFFR_0_\.Q
*606 mem_top_track_16\.DFFR_1_\.Q
*607 mem_top_track_18\.DFFR_0_\.Q
*608 mem_top_track_18\.DFFR_1_\.Q
*609 mem_top_track_2\.DFFR_0_\.Q
*610 mem_top_track_2\.DFFR_1_\.Q
*611 mem_top_track_2\.DFFR_2_\.Q
*612 mem_top_track_2\.DFFR_3_\.Q
*613 mem_top_track_2\.DFFR_4_\.Q
*614 mem_top_track_2\.DFFR_5_\.Q
*615 mem_top_track_20\.DFFR_0_\.Q
*616 mem_top_track_20\.DFFR_1_\.Q
*617 mem_top_track_22\.DFFR_0_\.Q
*618 mem_top_track_22\.DFFR_1_\.Q
*619 mem_top_track_24\.DFFR_0_\.Q
*620 mem_top_track_24\.DFFR_1_\.Q
*621 mem_top_track_26\.DFFR_0_\.Q
*622 mem_top_track_26\.DFFR_1_\.Q
*623 mem_top_track_36\.DFFR_0_\.Q
*624 mem_top_track_4\.DFFR_0_\.Q
*625 mem_top_track_4\.DFFR_1_\.Q
*626 mem_top_track_4\.DFFR_2_\.Q
*627 mem_top_track_4\.DFFR_3_\.Q
*628 mem_top_track_4\.DFFR_4_\.Q
*629 mem_top_track_4\.DFFR_5_\.Q
*630 mem_top_track_6\.DFFR_0_\.Q
*631 mem_top_track_6\.DFFR_1_\.Q
*632 mem_top_track_6\.DFFR_2_\.Q
*633 mem_top_track_6\.DFFR_3_\.Q
*634 mem_top_track_6\.DFFR_4_\.Q
*635 mem_top_track_6\.DFFR_5_\.Q
*636 mem_top_track_8\.DFFR_0_\.Q
*637 mux_left_track_1\.INVTX1_0_\.out
*638 mux_left_track_1\.INVTX1_1_\.out
*639 mux_left_track_1\.INVTX1_2_\.out
*640 mux_left_track_1\.INVTX1_3_\.out
*641 mux_left_track_1\.INVTX1_4_\.out
*642 mux_left_track_1\.INVTX1_5_\.out
*643 mux_left_track_1\.INVTX1_6_\.out
*644 mux_left_track_1\.INVTX1_7_\.out
*645 mux_left_track_1\.INVTX1_8_\.out
*646 mux_left_track_1\.mux_2level_tapbuf_basis_input4_mem4_0_out
*647 mux_left_track_1\.mux_2level_tapbuf_basis_input4_mem4_1_out
*648 mux_left_track_1\.mux_2level_tapbuf_basis_input4_mem4_2_out
*649 mux_left_track_1\.out
*650 mux_left_track_17\.INVTX1_0_\.out
*651 mux_left_track_17\.INVTX1_1_\.out
*652 mux_left_track_17\.INVTX1_2_\.out
*653 mux_left_track_17\.INVTX1_3_\.out
*654 mux_left_track_17\.INVTX1_4_\.out
*655 mux_left_track_17\.INVTX1_5_\.out
*656 mux_left_track_17\.INVTX1_6_\.out
*657 mux_left_track_17\.INVTX1_7_\.out
*658 mux_left_track_17\.INVTX1_8_\.out
*659 mux_left_track_17\.mux_2level_tapbuf_basis_input4_mem4_0_out
*660 mux_left_track_17\.mux_2level_tapbuf_basis_input4_mem4_1_out
*661 mux_left_track_17\.mux_2level_tapbuf_basis_input4_mem4_2_out
*662 mux_left_track_17\.out
*663 mux_left_track_25\.INVTX1_0_\.out
*664 mux_left_track_25\.INVTX1_1_\.out
*665 mux_left_track_25\.INVTX1_2_\.out
*666 mux_left_track_25\.INVTX1_3_\.out
*667 mux_left_track_25\.INVTX1_4_\.out
*668 mux_left_track_25\.INVTX1_5_\.out
*669 mux_left_track_25\.INVTX1_6_\.out
*670 mux_left_track_25\.INVTX1_7_\.out
*671 mux_left_track_25\.INVTX1_8_\.out
*672 mux_left_track_25\.mux_2level_tapbuf_basis_input4_mem4_0_out
*673 mux_left_track_25\.mux_2level_tapbuf_basis_input4_mem4_1_out
*674 mux_left_track_25\.mux_2level_tapbuf_basis_input4_mem4_2_out
*675 mux_left_track_25\.out
*676 mux_left_track_33\.INVTX1_0_\.out
*677 mux_left_track_33\.INVTX1_1_\.out
*678 mux_left_track_33\.INVTX1_2_\.out
*679 mux_left_track_33\.INVTX1_3_\.out
*680 mux_left_track_33\.INVTX1_4_\.out
*681 mux_left_track_33\.INVTX1_5_\.out
*682 mux_left_track_33\.INVTX1_6_\.out
*683 mux_left_track_33\.INVTX1_7_\.out
*684 mux_left_track_33\.mux_2level_tapbuf_basis_input3_mem3_0_out
*685 mux_left_track_33\.mux_2level_tapbuf_basis_input3_mem3_1_out
*686 mux_left_track_33\.mux_2level_tapbuf_basis_input3_mem3_2_out
*687 mux_left_track_33\.mux_2level_tapbuf_basis_input3_mem3_3_out
*688 mux_left_track_33\.out
*689 mux_left_track_9\.INVTX1_0_\.out
*690 mux_left_track_9\.INVTX1_1_\.out
*691 mux_left_track_9\.INVTX1_2_\.out
*692 mux_left_track_9\.INVTX1_3_\.out
*693 mux_left_track_9\.INVTX1_4_\.out
*694 mux_left_track_9\.INVTX1_5_\.out
*695 mux_left_track_9\.INVTX1_6_\.out
*696 mux_left_track_9\.INVTX1_7_\.out
*697 mux_left_track_9\.mux_2level_tapbuf_basis_input3_mem3_0_out
*698 mux_left_track_9\.mux_2level_tapbuf_basis_input3_mem3_1_out
*699 mux_left_track_9\.mux_2level_tapbuf_basis_input3_mem3_2_out
*700 mux_left_track_9\.mux_2level_tapbuf_basis_input3_mem3_3_out
*701 mux_left_track_9\.out
*702 mux_right_track_0\.INVTX1_3_\.out
*703 mux_right_track_0\.INVTX1_4_\.out
*704 mux_right_track_0\.INVTX1_5_\.out
*705 mux_right_track_0\.INVTX1_6_\.out
*706 mux_right_track_0\.INVTX1_7_\.out
*707 mux_right_track_0\.mux_2level_tapbuf_basis_input3_mem3_0_out
*708 mux_right_track_0\.mux_2level_tapbuf_basis_input3_mem3_1_out
*709 mux_right_track_0\.mux_2level_tapbuf_basis_input3_mem3_2_out
*710 mux_right_track_0\.mux_2level_tapbuf_basis_input3_mem3_3_out
*711 mux_right_track_0\.out
*712 mux_right_track_16\.INVTX1_4_\.out
*713 mux_right_track_16\.INVTX1_5_\.out
*714 mux_right_track_16\.INVTX1_6_\.out
*715 mux_right_track_16\.INVTX1_7_\.out
*716 mux_right_track_16\.INVTX1_8_\.out
*717 mux_right_track_16\.mux_2level_tapbuf_basis_input4_mem4_0_out
*718 mux_right_track_16\.mux_2level_tapbuf_basis_input4_mem4_1_out
*719 mux_right_track_16\.mux_2level_tapbuf_basis_input4_mem4_2_out
*720 mux_right_track_16\.out
*721 mux_right_track_24\.INVTX1_4_\.out
*722 mux_right_track_24\.INVTX1_5_\.out
*723 mux_right_track_24\.INVTX1_6_\.out
*724 mux_right_track_24\.INVTX1_7_\.out
*725 mux_right_track_24\.INVTX1_8_\.out
*726 mux_right_track_24\.mux_2level_tapbuf_basis_input4_mem4_0_out
*727 mux_right_track_24\.mux_2level_tapbuf_basis_input4_mem4_1_out
*728 mux_right_track_24\.mux_2level_tapbuf_basis_input4_mem4_2_out
*729 mux_right_track_24\.out
*730 mux_right_track_32\.INVTX1_4_\.out
*731 mux_right_track_32\.INVTX1_5_\.out
*732 mux_right_track_32\.INVTX1_6_\.out
*733 mux_right_track_32\.INVTX1_7_\.out
*734 mux_right_track_32\.mux_2level_tapbuf_basis_input3_mem3_0_out
*735 mux_right_track_32\.mux_2level_tapbuf_basis_input3_mem3_1_out
*736 mux_right_track_32\.mux_2level_tapbuf_basis_input3_mem3_2_out
*737 mux_right_track_32\.mux_2level_tapbuf_basis_input3_mem3_3_out
*738 mux_right_track_32\.out
*739 mux_right_track_8\.INVTX1_4_\.out
*740 mux_right_track_8\.INVTX1_5_\.out
*741 mux_right_track_8\.INVTX1_6_\.out
*742 mux_right_track_8\.INVTX1_7_\.out
*743 mux_right_track_8\.INVTX1_8_\.out
*744 mux_right_track_8\.mux_2level_tapbuf_basis_input4_mem4_0_out
*745 mux_right_track_8\.mux_2level_tapbuf_basis_input4_mem4_1_out
*746 mux_right_track_8\.mux_2level_tapbuf_basis_input4_mem4_2_out
*747 mux_right_track_8\.out
*748 mux_top_track_0\.INVTX1_0_\.out
*749 mux_top_track_0\.INVTX1_1_\.out
*750 mux_top_track_0\.INVTX1_3_\.out
*751 mux_top_track_0\.INVTX1_5_\.out
*752 mux_top_track_0\.mux_2level_tapbuf_basis_input3_mem3_0_out
*753 mux_top_track_0\.mux_2level_tapbuf_basis_input3_mem3_1_out
*754 mux_top_track_0\.mux_2level_tapbuf_basis_input3_mem3_2_out
*755 mux_top_track_0\.out
*756 mux_top_track_10\.mux_2level_tapbuf_basis_input2_mem1_0_out
*757 mux_top_track_10\.mux_2level_tapbuf_basis_input2_mem1_1_out
*758 mux_top_track_10\.out
*759 mux_top_track_12\.mux_2level_tapbuf_basis_input2_mem1_0_out
*760 mux_top_track_12\.mux_2level_tapbuf_basis_input2_mem1_1_out
*761 mux_top_track_12\.out
*762 mux_top_track_14\.mux_2level_tapbuf_basis_input2_mem1_0_out
*763 mux_top_track_14\.mux_2level_tapbuf_basis_input2_mem1_1_out
*764 mux_top_track_14\.out
*765 mux_top_track_16\.mux_2level_tapbuf_basis_input2_mem1_0_out
*766 mux_top_track_16\.mux_2level_tapbuf_basis_input2_mem1_1_out
*767 mux_top_track_16\.out
*768 mux_top_track_18\.mux_2level_tapbuf_basis_input2_mem1_0_out
*769 mux_top_track_18\.mux_2level_tapbuf_basis_input2_mem1_1_out
*770 mux_top_track_18\.mux_2level_tapbuf_basis_input2_mem1_2_out
*771 mux_top_track_18\.out
*772 mux_top_track_2\.INVTX1_1_\.out
*773 mux_top_track_2\.INVTX1_3_\.out
*774 mux_top_track_2\.mux_2level_tapbuf_basis_input2_mem2_0_out
*775 mux_top_track_2\.mux_2level_tapbuf_basis_input3_mem3_0_out
*776 mux_top_track_2\.mux_2level_tapbuf_basis_input3_mem3_1_out
*777 mux_top_track_2\.out
*778 mux_top_track_20\.mux_2level_tapbuf_basis_input2_mem1_0_out
*779 mux_top_track_20\.mux_2level_tapbuf_basis_input2_mem1_1_out
*780 mux_top_track_20\.mux_2level_tapbuf_basis_input2_mem1_2_out
*781 mux_top_track_20\.out
*782 mux_top_track_22\.mux_2level_tapbuf_basis_input2_mem1_0_out
*783 mux_top_track_22\.mux_2level_tapbuf_basis_input2_mem1_1_out
*784 mux_top_track_22\.mux_2level_tapbuf_basis_input2_mem1_2_out
*785 mux_top_track_22\.out
*786 mux_top_track_24\.mux_2level_tapbuf_basis_input2_mem1_0_out
*787 mux_top_track_24\.mux_2level_tapbuf_basis_input2_mem1_1_out
*788 mux_top_track_24\.out
*789 mux_top_track_26\.mux_2level_tapbuf_basis_input2_mem1_0_out
*790 mux_top_track_26\.mux_2level_tapbuf_basis_input2_mem1_1_out
*791 mux_top_track_26\.out
*792 mux_top_track_36\.INVTX1_1_\.out
*793 mux_top_track_36\.INVTX1_2_\.out
*794 mux_top_track_36\.mux_2level_tapbuf_basis_input2_mem1_0_out
*795 mux_top_track_36\.mux_2level_tapbuf_basis_input2_mem1_1_out
*796 mux_top_track_36\.mux_2level_tapbuf_basis_input2_mem1_2_out
*797 mux_top_track_36\.out
*798 mux_top_track_4\.INVTX1_2_\.out
*799 mux_top_track_4\.mux_2level_tapbuf_basis_input3_mem3_0_out
*800 mux_top_track_4\.mux_2level_tapbuf_basis_input3_mem3_1_out
*801 mux_top_track_4\.out
*802 mux_top_track_6\.INVTX1_0_\.out
*803 mux_top_track_6\.INVTX1_2_\.out
*804 mux_top_track_6\.mux_2level_tapbuf_basis_input3_mem3_0_out
*805 mux_top_track_6\.mux_2level_tapbuf_basis_input3_mem3_1_out
*806 mux_top_track_6\.out
*807 mux_top_track_8\.mux_2level_tapbuf_basis_input2_mem1_0_out
*808 mux_top_track_8\.mux_2level_tapbuf_basis_input2_mem1_1_out
*809 mux_top_track_8\.out
*810 net1
*811 net10
*812 net100
*813 net101
*814 net102
*815 net103
*816 net104
*817 net105
*818 net106
*819 net107
*820 net108
*821 net109
*822 net11
*823 net110
*824 net111
*825 net112
*826 net113
*827 net114
*828 net115
*829 net116
*830 net117
*831 net118
*832 net119
*833 net12
*834 net120
*835 net121
*836 net122
*837 net123
*838 net124
*839 net125
*840 net126
*841 net127
*842 net128
*843 net129
*844 net13
*845 net130
*846 net131
*847 net132
*848 net133
*849 net134
*850 net135
*851 net136
*852 net137
*853 net138
*854 net139
*855 net14
*856 net140
*857 net142
*858 net143
*859 net144
*860 net145
*861 net146
*862 net147
*863 net148
*864 net149
*865 net15
*866 net150
*867 net151
*868 net152
*869 net153
*870 net154
*871 net155
*872 net156
*873 net157
*874 net158
*875 net159
*876 net16
*877 net160
*878 net161
*879 net162
*880 net163
*881 net164
*882 net165
*883 net166
*884 net17
*885 net18
*886 net19
*887 net2
*888 net20
*889 net21
*890 net22
*891 net23
*892 net24
*893 net25
*894 net26
*895 net27
*896 net28
*897 net29
*898 net3
*899 net30
*900 net31
*901 net32
*902 net33
*903 net34
*904 net35
*905 net36
*906 net37
*907 net38
*908 net39
*909 net4
*910 net40
*911 net41
*912 net42
*913 net43
*914 net44
*915 net45
*916 net46
*917 net47
*918 net48
*919 net49
*920 net5
*921 net50
*922 net51
*923 net52
*924 net53
*925 net54
*926 net55
*927 net56
*928 net57
*929 net58
*930 net59
*931 net6
*932 net60
*933 net61
*934 net62
*935 net63
*936 net64
*937 net65
*938 net66
*939 net67
*940 net68
*941 net69
*942 net7
*943 net70
*944 net71
*945 net72
*946 net73
*947 net74
*948 net75
*949 net76
*950 net77
*951 net78
*952 net79
*953 net8
*954 net80
*955 net81
*956 net82
*957 net83
*958 net84
*959 net85
*960 net86
*961 net87
*962 net88
*963 net89
*964 net9
*965 net90
*966 net91
*967 net92
*968 net93
*969 net94
*970 net95
*971 net96
*972 net97
*973 net98
*974 net99
*975 ANTENNA_1
*976 ANTENNA_2
*977 ANTENNA_3
*978 ANTENNA_4
*979 ANTENNA_5
*980 ANTENNA_6
*981 FILLER_0_110
*982 FILLER_0_113
*983 FILLER_0_125
*984 FILLER_0_132
*985 FILLER_0_141
*986 FILLER_0_146
*987 FILLER_0_154
*988 FILLER_0_16
*989 FILLER_0_166
*990 FILLER_0_169
*991 FILLER_0_175
*992 FILLER_0_183
*993 FILLER_0_189
*994 FILLER_0_195
*995 FILLER_0_197
*996 FILLER_0_202
*997 FILLER_0_216
*998 FILLER_0_225
*999 FILLER_0_23
*1000 FILLER_0_230
*1001 FILLER_0_237
*1002 FILLER_0_244
*1003 FILLER_0_253
*1004 FILLER_0_258
*1005 FILLER_0_266
*1006 FILLER_0_27
*1007 FILLER_0_278
*1008 FILLER_0_281
*1009 FILLER_0_286
*1010 FILLER_0_29
*1011 FILLER_0_293
*1012 FILLER_0_3
*1013 FILLER_0_305
*1014 FILLER_0_309
*1015 FILLER_0_314
*1016 FILLER_0_322
*1017 FILLER_0_330
*1018 FILLER_0_337
*1019 FILLER_0_343
*1020 FILLER_0_351
*1021 FILLER_0_357
*1022 FILLER_0_363
*1023 FILLER_0_365
*1024 FILLER_0_371
*1025 FILLER_0_377
*1026 FILLER_0_382
*1027 FILLER_0_390
*1028 FILLER_0_393
*1029 FILLER_0_399
*1030 FILLER_0_41
*1031 FILLER_0_48
*1032 FILLER_0_57
*1033 FILLER_0_62
*1034 FILLER_0_69
*1035 FILLER_0_77
*1036 FILLER_0_82
*1037 FILLER_0_85
*1038 FILLER_0_9
*1039 FILLER_0_91
*1040 FILLER_0_96
*1041 FILLER_10_105
*1042 FILLER_10_109
*1043 FILLER_10_121
*1044 FILLER_10_13
*1045 FILLER_10_133
*1046 FILLER_10_139
*1047 FILLER_10_141
*1048 FILLER_10_153
*1049 FILLER_10_165
*1050 FILLER_10_177
*1051 FILLER_10_189
*1052 FILLER_10_195
*1053 FILLER_10_197
*1054 FILLER_10_209
*1055 FILLER_10_221
*1056 FILLER_10_233
*1057 FILLER_10_245
*1058 FILLER_10_25
*1059 FILLER_10_251
*1060 FILLER_10_253
*1061 FILLER_10_265
*1062 FILLER_10_277
*1063 FILLER_10_289
*1064 FILLER_10_29
*1065 FILLER_10_3
*1066 FILLER_10_304
*1067 FILLER_10_309
*1068 FILLER_10_321
*1069 FILLER_10_333
*1070 FILLER_10_345
*1071 FILLER_10_357
*1072 FILLER_10_363
*1073 FILLER_10_365
*1074 FILLER_10_377
*1075 FILLER_10_389
*1076 FILLER_10_405
*1077 FILLER_10_41
*1078 FILLER_10_53
*1079 FILLER_10_65
*1080 FILLER_10_77
*1081 FILLER_10_83
*1082 FILLER_10_85
*1083 FILLER_10_9
*1084 FILLER_10_97
*1085 FILLER_11_103
*1086 FILLER_11_111
*1087 FILLER_11_113
*1088 FILLER_11_125
*1089 FILLER_11_137
*1090 FILLER_11_149
*1091 FILLER_11_15
*1092 FILLER_11_161
*1093 FILLER_11_167
*1094 FILLER_11_169
*1095 FILLER_11_181
*1096 FILLER_11_193
*1097 FILLER_11_200
*1098 FILLER_11_212
*1099 FILLER_11_225
*1100 FILLER_11_237
*1101 FILLER_11_249
*1102 FILLER_11_264
*1103 FILLER_11_27
*1104 FILLER_11_276
*1105 FILLER_11_281
*1106 FILLER_11_293
*1107 FILLER_11_3
*1108 FILLER_11_305
*1109 FILLER_11_317
*1110 FILLER_11_329
*1111 FILLER_11_335
*1112 FILLER_11_337
*1113 FILLER_11_349
*1114 FILLER_11_361
*1115 FILLER_11_373
*1116 FILLER_11_385
*1117 FILLER_11_39
*1118 FILLER_11_391
*1119 FILLER_11_393
*1120 FILLER_11_398
*1121 FILLER_11_405
*1122 FILLER_11_51
*1123 FILLER_11_55
*1124 FILLER_11_57
*1125 FILLER_11_66
*1126 FILLER_11_78
*1127 FILLER_11_86
*1128 FILLER_11_91
*1129 FILLER_12_109
*1130 FILLER_12_121
*1131 FILLER_12_133
*1132 FILLER_12_139
*1133 FILLER_12_141
*1134 FILLER_12_153
*1135 FILLER_12_165
*1136 FILLER_12_177
*1137 FILLER_12_189
*1138 FILLER_12_194
*1139 FILLER_12_197
*1140 FILLER_12_20
*1141 FILLER_12_206
*1142 FILLER_12_213
*1143 FILLER_12_225
*1144 FILLER_12_237
*1145 FILLER_12_249
*1146 FILLER_12_253
*1147 FILLER_12_265
*1148 FILLER_12_277
*1149 FILLER_12_289
*1150 FILLER_12_29
*1151 FILLER_12_294
*1152 FILLER_12_3
*1153 FILLER_12_306
*1154 FILLER_12_309
*1155 FILLER_12_321
*1156 FILLER_12_333
*1157 FILLER_12_345
*1158 FILLER_12_357
*1159 FILLER_12_363
*1160 FILLER_12_365
*1161 FILLER_12_377
*1162 FILLER_12_389
*1163 FILLER_12_405
*1164 FILLER_12_41
*1165 FILLER_12_53
*1166 FILLER_12_65
*1167 FILLER_12_77
*1168 FILLER_12_8
*1169 FILLER_12_83
*1170 FILLER_12_85
*1171 FILLER_12_97
*1172 FILLER_13_101
*1173 FILLER_13_109
*1174 FILLER_13_113
*1175 FILLER_13_125
*1176 FILLER_13_137
*1177 FILLER_13_149
*1178 FILLER_13_15
*1179 FILLER_13_161
*1180 FILLER_13_167
*1181 FILLER_13_169
*1182 FILLER_13_181
*1183 FILLER_13_193
*1184 FILLER_13_197
*1185 FILLER_13_209
*1186 FILLER_13_213
*1187 FILLER_13_222
*1188 FILLER_13_225
*1189 FILLER_13_230
*1190 FILLER_13_242
*1191 FILLER_13_254
*1192 FILLER_13_262
*1193 FILLER_13_266
*1194 FILLER_13_27
*1195 FILLER_13_278
*1196 FILLER_13_281
*1197 FILLER_13_285
*1198 FILLER_13_289
*1199 FILLER_13_3
*1200 FILLER_13_301
*1201 FILLER_13_313
*1202 FILLER_13_329
*1203 FILLER_13_335
*1204 FILLER_13_337
*1205 FILLER_13_349
*1206 FILLER_13_361
*1207 FILLER_13_373
*1208 FILLER_13_385
*1209 FILLER_13_390
*1210 FILLER_13_393
*1211 FILLER_13_402
*1212 FILLER_13_406
*1213 FILLER_13_42
*1214 FILLER_13_54
*1215 FILLER_13_57
*1216 FILLER_13_66
*1217 FILLER_13_78
*1218 FILLER_13_89
*1219 FILLER_14_106
*1220 FILLER_14_118
*1221 FILLER_14_130
*1222 FILLER_14_138
*1223 FILLER_14_141
*1224 FILLER_14_15
*1225 FILLER_14_153
*1226 FILLER_14_165
*1227 FILLER_14_177
*1228 FILLER_14_189
*1229 FILLER_14_195
*1230 FILLER_14_197
*1231 FILLER_14_201
*1232 FILLER_14_205
*1233 FILLER_14_213
*1234 FILLER_14_219
*1235 FILLER_14_223
*1236 FILLER_14_232
*1237 FILLER_14_244
*1238 FILLER_14_253
*1239 FILLER_14_264
*1240 FILLER_14_27
*1241 FILLER_14_271
*1242 FILLER_14_283
*1243 FILLER_14_29
*1244 FILLER_14_295
*1245 FILLER_14_3
*1246 FILLER_14_307
*1247 FILLER_14_309
*1248 FILLER_14_321
*1249 FILLER_14_333
*1250 FILLER_14_345
*1251 FILLER_14_357
*1252 FILLER_14_363
*1253 FILLER_14_365
*1254 FILLER_14_377
*1255 FILLER_14_382
*1256 FILLER_14_389
*1257 FILLER_14_397
*1258 FILLER_14_401
*1259 FILLER_14_41
*1260 FILLER_14_53
*1261 FILLER_14_65
*1262 FILLER_14_76
*1263 FILLER_14_85
*1264 FILLER_14_94
*1265 FILLER_15_105
*1266 FILLER_15_111
*1267 FILLER_15_113
*1268 FILLER_15_125
*1269 FILLER_15_140
*1270 FILLER_15_152
*1271 FILLER_15_164
*1272 FILLER_15_169
*1273 FILLER_15_180
*1274 FILLER_15_192
*1275 FILLER_15_20
*1276 FILLER_15_204
*1277 FILLER_15_212
*1278 FILLER_15_217
*1279 FILLER_15_223
*1280 FILLER_15_225
*1281 FILLER_15_237
*1282 FILLER_15_249
*1283 FILLER_15_256
*1284 FILLER_15_263
*1285 FILLER_15_275
*1286 FILLER_15_279
*1287 FILLER_15_281
*1288 FILLER_15_293
*1289 FILLER_15_3
*1290 FILLER_15_304
*1291 FILLER_15_316
*1292 FILLER_15_32
*1293 FILLER_15_328
*1294 FILLER_15_337
*1295 FILLER_15_344
*1296 FILLER_15_356
*1297 FILLER_15_365
*1298 FILLER_15_374
*1299 FILLER_15_381
*1300 FILLER_15_388
*1301 FILLER_15_393
*1302 FILLER_15_405
*1303 FILLER_15_44
*1304 FILLER_15_57
*1305 FILLER_15_69
*1306 FILLER_15_8
*1307 FILLER_15_81
*1308 FILLER_15_93
*1309 FILLER_16_102
*1310 FILLER_16_114
*1311 FILLER_16_126
*1312 FILLER_16_138
*1313 FILLER_16_141
*1314 FILLER_16_153
*1315 FILLER_16_165