*SPEF "ieee 1481-1999"
*DESIGN "sb_4__4_"
*DATE "11:11:11 Fri 11 11, 1111"
*VENDOR "OpenRCX"
*PROGRAM "Parallel Extraction"
*VERSION "1.0"
*DESIGN_FLOW "NAME_SCOPE LOCAL" "PIN_CAP NONE"
*DIVIDER /
*DELIMITER :
*BUS_DELIMITER []
*T_UNIT 1 NS
*C_UNIT 1 PF
*R_UNIT 1 OHM
*L_UNIT 1 HENRY

*NAME_MAP
*1 bottom_left_grid_right_width_0_height_0_subtile_0__pin_O_1_
*2 bottom_left_grid_right_width_0_height_0_subtile_0__pin_O_5_
*3 bottom_right_grid_left_width_0_height_0_subtile_0__pin_inpad_0_
*4 bottom_right_grid_left_width_0_height_0_subtile_1__pin_inpad_0_
*5 bottom_right_grid_left_width_0_height_0_subtile_2__pin_inpad_0_
*6 bottom_right_grid_left_width_0_height_0_subtile_3__pin_inpad_0_
*7 bottom_right_grid_left_width_0_height_0_subtile_4__pin_inpad_0_
*8 bottom_right_grid_left_width_0_height_0_subtile_5__pin_inpad_0_
*9 bottom_right_grid_left_width_0_height_0_subtile_6__pin_inpad_0_
*10 bottom_right_grid_left_width_0_height_0_subtile_7__pin_inpad_0_
*11 ccff_head
*12 ccff_tail
*13 chanx_left_in[0]
*14 chanx_left_in[10]
*15 chanx_left_in[11]
*16 chanx_left_in[12]
*17 chanx_left_in[13]
*18 chanx_left_in[14]
*19 chanx_left_in[15]
*20 chanx_left_in[16]
*21 chanx_left_in[17]
*22 chanx_left_in[18]
*23 chanx_left_in[1]
*24 chanx_left_in[2]
*25 chanx_left_in[3]
*26 chanx_left_in[4]
*27 chanx_left_in[5]
*28 chanx_left_in[6]
*29 chanx_left_in[7]
*30 chanx_left_in[8]
*31 chanx_left_in[9]
*32 chanx_left_out[0]
*33 chanx_left_out[10]
*34 chanx_left_out[11]
*35 chanx_left_out[12]
*36 chanx_left_out[13]
*37 chanx_left_out[14]
*38 chanx_left_out[15]
*39 chanx_left_out[16]
*40 chanx_left_out[17]
*41 chanx_left_out[18]
*42 chanx_left_out[1]
*43 chanx_left_out[2]
*44 chanx_left_out[3]
*45 chanx_left_out[4]
*46 chanx_left_out[5]
*47 chanx_left_out[6]
*48 chanx_left_out[7]
*49 chanx_left_out[8]
*50 chanx_left_out[9]
*51 chany_bottom_in[0]
*52 chany_bottom_in[10]
*53 chany_bottom_in[11]
*54 chany_bottom_in[12]
*55 chany_bottom_in[13]
*56 chany_bottom_in[14]
*57 chany_bottom_in[15]
*58 chany_bottom_in[16]
*59 chany_bottom_in[17]
*60 chany_bottom_in[18]
*61 chany_bottom_in[1]
*62 chany_bottom_in[2]
*63 chany_bottom_in[3]
*64 chany_bottom_in[4]
*65 chany_bottom_in[5]
*66 chany_bottom_in[6]
*67 chany_bottom_in[7]
*68 chany_bottom_in[8]
*69 chany_bottom_in[9]
*70 chany_bottom_out[0]
*71 chany_bottom_out[10]
*72 chany_bottom_out[11]
*73 chany_bottom_out[12]
*74 chany_bottom_out[13]
*75 chany_bottom_out[14]
*76 chany_bottom_out[15]
*77 chany_bottom_out[16]
*78 chany_bottom_out[17]
*79 chany_bottom_out[18]
*80 chany_bottom_out[1]
*81 chany_bottom_out[2]
*82 chany_bottom_out[3]
*83 chany_bottom_out[4]
*84 chany_bottom_out[5]
*85 chany_bottom_out[6]
*86 chany_bottom_out[7]
*87 chany_bottom_out[8]
*88 chany_bottom_out[9]
*89 left_bottom_grid_top_width_0_height_0_subtile_0__pin_O_0_
*90 left_bottom_grid_top_width_0_height_0_subtile_0__pin_O_4_
*91 left_top_grid_bottom_width_0_height_0_subtile_0__pin_inpad_0_
*92 left_top_grid_bottom_width_0_height_0_subtile_1__pin_inpad_0_
*93 left_top_grid_bottom_width_0_height_0_subtile_2__pin_inpad_0_
*94 left_top_grid_bottom_width_0_height_0_subtile_3__pin_inpad_0_
*95 left_top_grid_bottom_width_0_height_0_subtile_4__pin_inpad_0_
*96 left_top_grid_bottom_width_0_height_0_subtile_5__pin_inpad_0_
*97 left_top_grid_bottom_width_0_height_0_subtile_6__pin_inpad_0_
*98 left_top_grid_bottom_width_0_height_0_subtile_7__pin_inpad_0_
*99 pReset
*100 prog_clk
*103 _0000_
*104 _0001_
*105 _0002_
*106 _0003_
*107 _0004_
*108 _0005_
*109 _0006_
*110 _0007_
*111 _0008_
*112 _0009_
*113 _0010_
*114 _0011_
*115 _0012_
*116 _0013_
*117 _0014_
*118 _0015_
*119 _0016_
*120 _0017_
*121 _0018_
*122 _0019_
*123 _0020_
*124 _0021_
*125 _0022_
*126 _0023_
*127 _0024_
*128 _0025_
*129 _0026_
*130 _0027_
*131 _0028_
*132 _0029_
*133 _0030_
*134 _0031_
*135 _0032_
*136 _0033_
*137 _0034_
*138 _0035_
*139 _0036_
*140 _0037_
*141 _0038_
*142 _0039_
*143 _0040_
*144 _0041_
*145 _0042_
*146 _0043_
*147 _0044_
*148 _0045_
*149 _0046_
*150 _0047_
*151 _0048_
*152 _0049_
*153 _0050_
*154 _0051_
*155 _0052_
*156 _0053_
*157 _0054_
*158 _0055_
*159 _0056_
*160 _0057_
*161 _0058_
*162 _0059_
*163 _0060_
*164 _0061_
*165 _0062_
*166 _0063_
*167 _0064_
*168 _0065_
*169 _0066_
*170 _0067_
*171 _0068_
*172 _0069_
*173 _0070_
*174 _0071_
*175 _0072_
*176 _0073_
*177 _0074_
*178 _0075_
*179 _0076_
*180 _0077_
*181 _0078_
*182 _0079_
*183 _0080_
*184 _0081_
*185 _0082_
*186 _0083_
*187 _0084_
*188 _0085_
*189 _0086_
*190 _0087_
*191 _0088_
*192 _0089_
*193 _0090_
*194 _0091_
*195 _0092_
*196 _0093_
*197 _0094_
*198 _0095_
*199 _0096_
*200 _0097_
*201 _0098_
*202 _0099_
*203 _0100_
*204 _0101_
*205 _0102_
*206 _0103_
*207 _0104_
*208 _0105_
*209 _0106_
*210 _0107_
*211 _0108_
*212 _0109_
*213 _0110_
*214 _0111_
*215 _0112_
*216 _0113_
*217 _0114_
*218 _0115_
*219 _0116_
*220 _0117_
*221 _0118_
*222 _0119_
*223 _0120_
*224 _0121_
*225 _0122_
*226 _0123_
*227 _0124_
*228 _0125_
*229 _0126_
*230 _0127_
*231 _0128_
*232 _0129_
*233 _0130_
*234 _0131_
*235 _0132_
*236 _0133_
*237 _0134_
*238 _0135_
*239 _0136_
*240 _0137_
*241 _0138_
*242 _0139_
*243 _0140_
*244 _0141_
*245 _0142_
*246 _0143_
*247 _0144_
*248 _0145_
*249 _0146_
*250 _0147_
*251 _0148_
*252 _0149_
*253 _0150_
*254 _0151_
*255 _0152_
*256 _0153_
*257 _0154_
*258 _0155_
*259 _0156_
*260 _0157_
*261 _0158_
*262 _0159_
*263 _0160_
*264 _0161_
*265 _0162_
*266 _0163_
*267 _0164_
*268 _0165_
*269 _0166_
*270 _0167_
*271 _0168_
*272 _0169_
*273 _0170_
*274 _0171_
*275 _0172_
*276 _0173_
*277 _0174_
*278 _0175_
*279 _0176_
*280 _0177_
*281 _0178_
*282 _0179_
*283 _0180_
*284 _0181_
*285 _0182_
*286 _0183_
*287 _0184_
*288 _0185_
*289 _0186_
*290 _0187_
*291 _0188_
*292 _0189_
*293 _0190_
*294 _0191_
*295 _0192_
*296 _0193_
*297 _0194_
*298 _0195_
*299 _0196_
*300 _0197_
*301 _0198_
*302 _0199_
*303 _0200_
*304 _0201_
*305 _0202_
*306 _0203_
*307 _0204_
*308 _0205_
*309 _0206_
*310 _0207_
*311 _0208_
*312 _0209_
*313 _0210_
*314 _0211_
*315 _0212_
*316 _0213_
*317 _0214_
*318 _0215_
*319 _0216_
*320 _0217_
*321 _0218_
*322 _0219_
*323 _0220_
*324 _0221_
*325 _0222_
*326 _0223_
*327 _0224_
*328 _0225_
*329 _0226_
*330 _0227_
*331 _0228_
*332 _0229_
*333 _0230_
*334 _0231_
*335 _0232_
*336 _0233_
*337 _0234_
*338 _0235_
*339 _0236_
*340 _0237_
*341 _0238_
*342 _0239_
*343 _0240_
*344 _0241_
*345 _0242_
*346 _0243_
*347 _0244_
*348 _0245_
*349 _0246_
*350 _0247_
*351 _0248_
*352 _0249_
*353 _0250_
*354 _0251_
*355 _0252_
*356 _0253_
*357 _0254_
*358 _0255_
*359 _0256_
*360 _0257_
*361 _0258_
*362 _0259_
*363 _0260_
*364 _0261_
*365 _0262_
*366 _0263_
*367 _0264_
*368 _0265_
*369 _0266_
*370 _0267_
*371 _0268_
*372 _0269_
*373 _0270_
*374 _0271_
*375 _0272_
*376 _0273_
*377 _0274_
*378 _0275_
*379 _0276_
*380 _0277_
*381 _0278_
*382 _0279_
*383 _0280_
*384 _0281_
*385 _0282_
*386 _0283_
*387 _0284_
*388 _0285_
*389 _0286_
*390 _0287_
*391 _0288_
*392 _0289_
*393 _0290_
*394 _0291_
*395 _0292_
*396 _0293_
*397 _0294_
*398 _0295_
*399 _0296_
*400 _0297_
*401 _0298_
*402 _0299_
*403 _0300_
*404 _0301_
*405 _0302_
*406 _0303_
*407 _0304_
*408 _0305_
*409 _0306_
*410 _0307_
*411 _0308_
*412 _0309_
*413 _0310_
*414 _0311_
*415 _0312_
*416 _0313_
*417 _0314_
*418 _0315_
*419 _0316_
*420 _0317_
*421 _0318_
*422 _0319_
*423 _0320_
*424 _0321_
*425 _0322_
*426 _0323_
*427 _0324_
*428 _0325_
*429 _0326_
*430 _0327_
*431 _0328_
*432 _0329_
*433 _0330_
*434 _0331_
*435 _0332_
*436 _0333_
*437 _0334_
*438 _0335_
*439 _0336_
*440 _0337_
*441 _0338_
*442 _0339_
*443 _0340_
*444 _0341_
*445 _0342_
*446 _0343_
*447 _0344_
*448 _0345_
*449 _0346_
*450 _0347_
*451 _0348_
*452 _0349_
*453 _0350_
*454 _0351_
*455 _0352_
*456 _0353_
*457 _0354_
*458 _0355_
*459 _0356_
*460 _0357_
*461 _0358_
*462 _0359_
*463 _0360_
*464 _0361_
*465 _0362_
*466 _0363_
*467 _0364_
*468 _0365_
*469 _0366_
*470 _0367_
*471 _0368_
*472 _0369_
*473 _0370_
*474 _0371_
*475 _0372_
*476 _0373_
*477 _0374_
*478 _0375_
*479 _0376_
*480 _0377_
*481 mem_bottom_track_1\.DFFR_0_\.Q
*482 mem_bottom_track_1\.DFFR_1_\.Q
*483 mem_bottom_track_11\.DFFR_0_\.D
*484 mem_bottom_track_11\.DFFR_0_\.Q
*485 mem_bottom_track_11\.DFFR_1_\.Q
*486 mem_bottom_track_13\.DFFR_0_\.Q
*487 mem_bottom_track_13\.DFFR_1_\.Q
*488 mem_bottom_track_15\.DFFR_0_\.Q
*489 mem_bottom_track_15\.DFFR_1_\.Q
*490 mem_bottom_track_17\.DFFR_0_\.Q
*491 mem_bottom_track_17\.DFFR_1_\.Q
*492 mem_bottom_track_19\.DFFR_0_\.Q
*493 mem_bottom_track_19\.DFFR_1_\.Q
*494 mem_bottom_track_21\.DFFR_0_\.Q
*495 mem_bottom_track_21\.DFFR_1_\.Q
*496 mem_bottom_track_23\.DFFR_0_\.Q
*497 mem_bottom_track_23\.DFFR_1_\.Q
*498 mem_bottom_track_25\.DFFR_0_\.Q
*499 mem_bottom_track_25\.DFFR_1_\.Q
*500 mem_bottom_track_27\.DFFR_0_\.Q
*501 mem_bottom_track_27\.DFFR_1_\.Q
*502 mem_bottom_track_29\.DFFR_0_\.Q
*503 mem_bottom_track_29\.DFFR_1_\.Q
*504 mem_bottom_track_3\.DFFR_0_\.Q
*505 mem_bottom_track_3\.DFFR_1_\.Q
*506 mem_bottom_track_31\.DFFR_0_\.Q
*507 mem_bottom_track_31\.DFFR_1_\.Q
*508 mem_bottom_track_33\.DFFR_0_\.Q
*509 mem_bottom_track_33\.DFFR_1_\.Q
*510 mem_bottom_track_35\.DFFR_0_\.Q
*511 mem_bottom_track_35\.DFFR_1_\.Q
*512 mem_bottom_track_37\.DFFR_0_\.Q
*513 mem_bottom_track_37\.DFFR_1_\.Q
*514 mem_bottom_track_5\.DFFR_0_\.Q
*515 mem_bottom_track_5\.DFFR_1_\.Q
*516 mem_bottom_track_7\.DFFR_0_\.Q
*517 mem_bottom_track_7\.DFFR_1_\.Q
*518 mem_bottom_track_9\.DFFR_0_\.Q
*519 mem_left_track_1\.DFFR_0_\.Q
*520 mem_left_track_1\.DFFR_1_\.Q
*521 mem_left_track_11\.DFFR_0_\.D
*522 mem_left_track_11\.DFFR_0_\.Q
*523 mem_left_track_11\.DFFR_1_\.Q
*524 mem_left_track_13\.DFFR_0_\.Q
*525 mem_left_track_13\.DFFR_1_\.Q
*526 mem_left_track_15\.DFFR_0_\.Q
*527 mem_left_track_15\.DFFR_1_\.Q
*528 mem_left_track_17\.DFFR_0_\.Q
*529 mem_left_track_17\.DFFR_1_\.Q
*530 mem_left_track_19\.DFFR_0_\.Q
*531 mem_left_track_19\.DFFR_1_\.Q
*532 mem_left_track_21\.DFFR_0_\.Q
*533 mem_left_track_21\.DFFR_1_\.Q
*534 mem_left_track_23\.DFFR_0_\.Q
*535 mem_left_track_23\.DFFR_1_\.Q
*536 mem_left_track_25\.DFFR_0_\.Q
*537 mem_left_track_25\.DFFR_1_\.Q
*538 mem_left_track_27\.DFFR_0_\.Q
*539 mem_left_track_27\.DFFR_1_\.Q
*540 mem_left_track_29\.DFFR_0_\.Q
*541 mem_left_track_29\.DFFR_1_\.Q
*542 mem_left_track_3\.DFFR_0_\.Q
*543 mem_left_track_3\.DFFR_1_\.Q
*544 mem_left_track_31\.DFFR_0_\.Q
*545 mem_left_track_31\.DFFR_1_\.Q
*546 mem_left_track_33\.DFFR_0_\.Q
*547 mem_left_track_33\.DFFR_1_\.Q
*548 mem_left_track_35\.DFFR_0_\.Q
*549 mem_left_track_35\.DFFR_1_\.Q
*550 mem_left_track_37\.DFFR_0_\.Q
*551 mem_left_track_5\.DFFR_0_\.Q
*552 mem_left_track_5\.DFFR_1_\.Q
*553 mem_left_track_7\.DFFR_0_\.Q
*554 mem_left_track_7\.DFFR_1_\.Q
*555 mem_left_track_9\.DFFR_0_\.Q
*556 mux_bottom_track_1\.INVTX1_0_\.out
*557 mux_bottom_track_1\.INVTX1_1_\.out
*558 mux_bottom_track_1\.INVTX1_2_\.out
*559 mux_bottom_track_1\.mux_2level_tapbuf_basis_input2_mem1_0_out
*560 mux_bottom_track_1\.mux_2level_tapbuf_basis_input2_mem1_1_out
*561 mux_bottom_track_1\.mux_2level_tapbuf_basis_input2_mem1_2_out
*562 mux_bottom_track_1\.out
*563 mux_bottom_track_11\.INVTX1_0_\.out
*564 mux_bottom_track_11\.INVTX1_1_\.out
*565 mux_bottom_track_11\.INVTX1_2_\.out
*566 mux_bottom_track_11\.mux_2level_tapbuf_basis_input2_mem1_0_out
*567 mux_bottom_track_11\.mux_2level_tapbuf_basis_input2_mem1_1_out
*568 mux_bottom_track_11\.mux_2level_tapbuf_basis_input2_mem1_2_out
*569 mux_bottom_track_11\.out
*570 mux_bottom_track_13\.INVTX1_1_\.out
*571 mux_bottom_track_13\.INVTX1_2_\.out
*572 mux_bottom_track_13\.mux_2level_tapbuf_basis_input2_mem1_0_out
*573 mux_bottom_track_13\.mux_2level_tapbuf_basis_input2_mem1_1_out
*574 mux_bottom_track_13\.mux_2level_tapbuf_basis_input2_mem1_2_out
*575 mux_bottom_track_13\.out
*576 mux_bottom_track_15\.INVTX1_1_\.out
*577 mux_bottom_track_15\.INVTX1_2_\.out
*578 mux_bottom_track_15\.mux_2level_tapbuf_basis_input2_mem1_0_out
*579 mux_bottom_track_15\.mux_2level_tapbuf_basis_input2_mem1_1_out
*580 mux_bottom_track_15\.mux_2level_tapbuf_basis_input2_mem1_2_out
*581 mux_bottom_track_15\.out
*582 mux_bottom_track_17\.INVTX1_1_\.out
*583 mux_bottom_track_17\.INVTX1_2_\.out
*584 mux_bottom_track_17\.mux_2level_tapbuf_basis_input2_mem1_0_out
*585 mux_bottom_track_17\.mux_2level_tapbuf_basis_input2_mem1_1_out
*586 mux_bottom_track_17\.mux_2level_tapbuf_basis_input2_mem1_2_out
*587 mux_bottom_track_17\.out
*588 mux_bottom_track_19\.INVTX1_2_\.out
*589 mux_bottom_track_19\.mux_2level_tapbuf_basis_input2_mem1_0_out
*590 mux_bottom_track_19\.mux_2level_tapbuf_basis_input2_mem1_1_out
*591 mux_bottom_track_19\.mux_2level_tapbuf_basis_input2_mem1_2_out
*592 mux_bottom_track_19\.out
*593 mux_bottom_track_21\.INVTX1_1_\.out
*594 mux_bottom_track_21\.mux_2level_tapbuf_basis_input2_mem1_0_out
*595 mux_bottom_track_21\.mux_2level_tapbuf_basis_input2_mem1_1_out
*596 mux_bottom_track_21\.out
*597 mux_bottom_track_23\.INVTX1_0_\.out
*598 mux_bottom_track_23\.INVTX1_1_\.out
*599 mux_bottom_track_23\.mux_2level_tapbuf_basis_input2_mem1_0_out
*600 mux_bottom_track_23\.mux_2level_tapbuf_basis_input2_mem1_1_out
*601 mux_bottom_track_23\.out
*602 mux_bottom_track_25\.INVTX1_0_\.out
*603 mux_bottom_track_25\.INVTX1_1_\.out
*604 mux_bottom_track_25\.mux_2level_tapbuf_basis_input2_mem1_0_out
*605 mux_bottom_track_25\.mux_2level_tapbuf_basis_input2_mem1_1_out
*606 mux_bottom_track_25\.out
*607 mux_bottom_track_27\.INVTX1_0_\.out
*608 mux_bottom_track_27\.INVTX1_1_\.out
*609 mux_bottom_track_27\.mux_2level_tapbuf_basis_input2_mem1_0_out
*610 mux_bottom_track_27\.mux_2level_tapbuf_basis_input2_mem1_1_out
*611 mux_bottom_track_27\.out
*612 mux_bottom_track_29\.INVTX1_1_\.out
*613 mux_bottom_track_29\.mux_2level_tapbuf_basis_input2_mem1_0_out
*614 mux_bottom_track_29\.mux_2level_tapbuf_basis_input2_mem1_1_out
*615 mux_bottom_track_29\.out
*616 mux_bottom_track_3\.INVTX1_2_\.out
*617 mux_bottom_track_3\.mux_2level_tapbuf_basis_input2_mem1_0_out
*618 mux_bottom_track_3\.mux_2level_tapbuf_basis_input2_mem1_1_out
*619 mux_bottom_track_3\.mux_2level_tapbuf_basis_input2_mem1_2_out
*620 mux_bottom_track_3\.out
*621 mux_bottom_track_31\.INVTX1_1_\.out
*622 mux_bottom_track_31\.mux_2level_tapbuf_basis_input2_mem1_0_out
*623 mux_bottom_track_31\.mux_2level_tapbuf_basis_input2_mem1_1_out
*624 mux_bottom_track_31\.out
*625 mux_bottom_track_33\.INVTX1_1_\.out
*626 mux_bottom_track_33\.mux_2level_tapbuf_basis_input2_mem1_0_out
*627 mux_bottom_track_33\.mux_2level_tapbuf_basis_input2_mem1_1_out
*628 mux_bottom_track_33\.out
*629 mux_bottom_track_35\.INVTX1_1_\.out
*630 mux_bottom_track_35\.mux_2level_tapbuf_basis_input2_mem1_0_out
*631 mux_bottom_track_35\.mux_2level_tapbuf_basis_input2_mem1_1_out
*632 mux_bottom_track_35\.out
*633 mux_bottom_track_37\.INVTX1_2_\.out
*634 mux_bottom_track_37\.mux_2level_tapbuf_basis_input2_mem1_0_out
*635 mux_bottom_track_37\.mux_2level_tapbuf_basis_input2_mem1_1_out
*636 mux_bottom_track_37\.mux_2level_tapbuf_basis_input2_mem1_2_out
*637 mux_bottom_track_37\.out
*638 mux_bottom_track_5\.INVTX1_2_\.out
*639 mux_bottom_track_5\.mux_2level_tapbuf_basis_input2_mem1_0_out
*640 mux_bottom_track_5\.mux_2level_tapbuf_basis_input2_mem1_1_out
*641 mux_bottom_track_5\.mux_2level_tapbuf_basis_input2_mem1_2_out
*642 mux_bottom_track_5\.out
*643 mux_bottom_track_7\.INVTX1_2_\.out
*644 mux_bottom_track_7\.mux_2level_tapbuf_basis_input2_mem1_0_out
*645 mux_bottom_track_7\.mux_2level_tapbuf_basis_input2_mem1_1_out
*646 mux_bottom_track_7\.mux_2level_tapbuf_basis_input2_mem1_2_out
*647 mux_bottom_track_7\.out
*648 mux_bottom_track_9\.INVTX1_2_\.out
*649 mux_bottom_track_9\.mux_2level_tapbuf_basis_input2_mem1_0_out
*650 mux_bottom_track_9\.mux_2level_tapbuf_basis_input2_mem1_1_out
*651 mux_bottom_track_9\.mux_2level_tapbuf_basis_input2_mem1_2_out
*652 mux_bottom_track_9\.out
*653 mux_left_track_1\.INVTX1_0_\.out
*654 mux_left_track_1\.INVTX1_1_\.out
*655 mux_left_track_1\.INVTX1_2_\.out
*656 mux_left_track_1\.mux_2level_tapbuf_basis_input2_mem1_0_out
*657 mux_left_track_1\.mux_2level_tapbuf_basis_input2_mem1_1_out
*658 mux_left_track_1\.mux_2level_tapbuf_basis_input2_mem1_2_out
*659 mux_left_track_1\.out
*660 mux_left_track_11\.INVTX1_0_\.out
*661 mux_left_track_11\.INVTX1_1_\.out
*662 mux_left_track_11\.INVTX1_2_\.out
*663 mux_left_track_11\.mux_2level_tapbuf_basis_input2_mem1_0_out
*664 mux_left_track_11\.mux_2level_tapbuf_basis_input2_mem1_1_out
*665 mux_left_track_11\.mux_2level_tapbuf_basis_input2_mem1_2_out
*666 mux_left_track_11\.out
*667 mux_left_track_13\.INVTX1_0_\.out
*668 mux_left_track_13\.INVTX1_2_\.out
*669 mux_left_track_13\.mux_2level_tapbuf_basis_input2_mem1_0_out
*670 mux_left_track_13\.mux_2level_tapbuf_basis_input2_mem1_1_out
*671 mux_left_track_13\.mux_2level_tapbuf_basis_input2_mem1_2_out
*672 mux_left_track_13\.out
*673 mux_left_track_15\.INVTX1_0_\.out
*674 mux_left_track_15\.INVTX1_2_\.out
*675 mux_left_track_15\.mux_2level_tapbuf_basis_input2_mem1_0_out
*676 mux_left_track_15\.mux_2level_tapbuf_basis_input2_mem1_1_out
*677 mux_left_track_15\.mux_2level_tapbuf_basis_input2_mem1_2_out
*678 mux_left_track_15\.out
*679 mux_left_track_17\.INVTX1_0_\.out
*680 mux_left_track_17\.INVTX1_2_\.out
*681 mux_left_track_17\.mux_2level_tapbuf_basis_input2_mem1_0_out
*682 mux_left_track_17\.mux_2level_tapbuf_basis_input2_mem1_1_out
*683 mux_left_track_17\.mux_2level_tapbuf_basis_input2_mem1_2_out
*684 mux_left_track_17\.out
*685 mux_left_track_19\.INVTX1_0_\.out
*686 mux_left_track_19\.mux_2level_tapbuf_basis_input2_mem1_0_out
*687 mux_left_track_19\.mux_2level_tapbuf_basis_input2_mem1_1_out
*688 mux_left_track_19\.mux_2level_tapbuf_basis_input2_mem1_2_out
*689 mux_left_track_19\.out
*690 mux_left_track_21\.INVTX1_0_\.out
*691 mux_left_track_21\.mux_2level_tapbuf_basis_input2_mem1_0_out
*692 mux_left_track_21\.mux_2level_tapbuf_basis_input2_mem1_1_out
*693 mux_left_track_21\.out
*694 mux_left_track_23\.INVTX1_0_\.out
*695 mux_left_track_23\.INVTX1_1_\.out
*696 mux_left_track_23\.mux_2level_tapbuf_basis_input2_mem1_0_out
*697 mux_left_track_23\.mux_2level_tapbuf_basis_input2_mem1_1_out
*698 mux_left_track_23\.out
*699 mux_left_track_25\.INVTX1_0_\.out
*700 mux_left_track_25\.INVTX1_1_\.out
*701 mux_left_track_25\.mux_2level_tapbuf_basis_input2_mem1_0_out
*702 mux_left_track_25\.mux_2level_tapbuf_basis_input2_mem1_1_out
*703 mux_left_track_25\.out
*704 mux_left_track_27\.INVTX1_0_\.out
*705 mux_left_track_27\.INVTX1_1_\.out
*706 mux_left_track_27\.mux_2level_tapbuf_basis_input2_mem1_0_out
*707 mux_left_track_27\.mux_2level_tapbuf_basis_input2_mem1_1_out
*708 mux_left_track_27\.out
*709 mux_left_track_29\.INVTX1_0_\.out
*710 mux_left_track_29\.mux_2level_tapbuf_basis_input2_mem1_0_out
*711 mux_left_track_29\.mux_2level_tapbuf_basis_input2_mem1_1_out
*712 mux_left_track_29\.out
*713 mux_left_track_3\.INVTX1_0_\.out
*714 mux_left_track_3\.mux_2level_tapbuf_basis_input2_mem1_0_out
*715 mux_left_track_3\.mux_2level_tapbuf_basis_input2_mem1_1_out
*716 mux_left_track_3\.mux_2level_tapbuf_basis_input2_mem1_2_out
*717 mux_left_track_3\.out
*718 mux_left_track_31\.INVTX1_0_\.out
*719 mux_left_track_31\.mux_2level_tapbuf_basis_input2_mem1_0_out
*720 mux_left_track_31\.mux_2level_tapbuf_basis_input2_mem1_1_out
*721 mux_left_track_31\.out
*722 mux_left_track_33\.INVTX1_0_\.out
*723 mux_left_track_33\.mux_2level_tapbuf_basis_input2_mem1_0_out
*724 mux_left_track_33\.mux_2level_tapbuf_basis_input2_mem1_1_out
*725 mux_left_track_33\.out
*726 mux_left_track_35\.INVTX1_0_\.out
*727 mux_left_track_35\.mux_2level_tapbuf_basis_input2_mem1_0_out
*728 mux_left_track_35\.mux_2level_tapbuf_basis_input2_mem1_1_out
*729 mux_left_track_35\.out
*730 mux_left_track_37\.INVTX1_0_\.out
*731 mux_left_track_37\.mux_2level_tapbuf_basis_input2_mem1_0_out
*732 mux_left_track_37\.mux_2level_tapbuf_basis_input2_mem1_1_out
*733 mux_left_track_37\.mux_2level_tapbuf_basis_input2_mem1_2_out
*734 mux_left_track_37\.out
*735 mux_left_track_5\.INVTX1_0_\.out
*736 mux_left_track_5\.mux_2level_tapbuf_basis_input2_mem1_0_out
*737 mux_left_track_5\.mux_2level_tapbuf_basis_input2_mem1_1_out
*738 mux_left_track_5\.mux_2level_tapbuf_basis_input2_mem1_2_out
*739 mux_left_track_5\.out
*740 mux_left_track_7\.INVTX1_0_\.out
*741 mux_left_track_7\.mux_2level_tapbuf_basis_input2_mem1_0_out
*742 mux_left_track_7\.mux_2level_tapbuf_basis_input2_mem1_1_out
*743 mux_left_track_7\.mux_2level_tapbuf_basis_input2_mem1_2_out
*744 mux_left_track_7\.out
*745 mux_left_track_9\.INVTX1_0_\.out
*746 mux_left_track_9\.mux_2level_tapbuf_basis_input2_mem1_0_out
*747 mux_left_track_9\.mux_2level_tapbuf_basis_input2_mem1_1_out
*748 mux_left_track_9\.mux_2level_tapbuf_basis_input2_mem1_2_out
*749 mux_left_track_9\.out
*750 net1
*751 net10
*752 net100
*753 net101
*754 net102
*755 net103
*756 net104
*757 net105
*758 net106
*759 net107
*760 net108
*761 net109
*762 net11
*763 net110
*764 net111
*765 net112
*766 net113
*767 net114
*768 net115
*769 net116
*770 net117
*771 net118
*772 net119
*773 net12
*774 net120
*775 net121
*776 net122
*777 net123
*778 net124
*779 net125
*780 net126
*781 net127
*782 net128
*783 net129
*784 net13
*785 net130
*786 net131
*787 net132
*788 net133
*789 net134
*790 net135
*791 net136
*792 net137
*793 net14
*794 net15
*795 net16
*796 net17
*797 net18
*798 net19
*799 net2
*800 net20
*801 net21
*802 net22
*803 net23
*804 net24
*805 net25
*806 net26
*807 net27
*808 net28
*809 net29
*810 net3
*811 net30
*812 net31
*813 net32
*814 net33
*815 net34
*816 net35
*817 net36
*818 net37
*819 net38
*820 net39
*821 net4
*822 net40
*823 net41
*824 net42
*825 net43
*826 net44
*827 net45
*828 net46
*829 net47
*830 net48
*831 net49
*832 net5
*833 net50
*834 net51
*835 net52
*836 net53
*837 net54
*838 net55
*839 net56
*840 net57
*841 net58
*842 net59
*843 net6
*844 net60
*845 net61
*846 net62
*847 net63
*848 net64
*849 net65
*850 net66
*851 net67
*852 net68
*853 net69
*854 net7
*855 net70
*856 net71
*857 net72
*858 net73
*859 net74
*860 net75
*861 net76
*862 net77
*863 net78
*864 net79
*865 net8
*866 net80
*867 net81
*868 net82
*869 net83
*870 net84
*871 net85
*872 net86
*873 net87
*874 net88
*875 net89
*876 net9
*877 net90
*878 net91
*879 net92
*880 net93
*881 net94
*882 net95
*883 net96
*884 net97
*885 net98
*886 net99
*887 ANTENNA_1
*888 ANTENNA_2
*889 FILLER_0_105
*890 FILLER_0_111
*891 FILLER_0_113
*892 FILLER_0_118
*893 FILLER_0_130
*894 FILLER_0_138
*895 FILLER_0_141
*896 FILLER_0_146
*897 FILLER_0_153
*898 FILLER_0_165
*899 FILLER_0_169
*900 FILLER_0_174
*901 FILLER_0_182
*902 FILLER_0_189
*903 FILLER_0_195
*904 FILLER_0_197
*905 FILLER_0_203
*906 FILLER_0_21
*907 FILLER_0_215
*908 FILLER_0_223
*909 FILLER_0_225
*910 FILLER_0_230
*911 FILLER_0_237
*912 FILLER_0_249
*913 FILLER_0_253
*914 FILLER_0_259
*915 FILLER_0_267
*916 FILLER_0_27
*917 FILLER_0_273
*918 FILLER_0_279
*919 FILLER_0_281
*920 FILLER_0_287
*921 FILLER_0_29
*922 FILLER_0_299
*923 FILLER_0_3
*924 FILLER_0_307
*925 FILLER_0_309
*926 FILLER_0_314
*927 FILLER_0_321
*928 FILLER_0_333
*929 FILLER_0_337
*930 FILLER_0_34
*931 FILLER_0_343
*932 FILLER_0_351
*933 FILLER_0_356
*934 FILLER_0_365
*935 FILLER_0_370
*936 FILLER_0_378
*937 FILLER_0_384
*938 FILLER_0_393
*939 FILLER_0_405
*940 FILLER_0_41
*941 FILLER_0_48
*942 FILLER_0_57
*943 FILLER_0_63
*944 FILLER_0_70
*945 FILLER_0_82
*946 FILLER_0_85
*947 FILLER_0_9
*948 FILLER_0_91
*949 FILLER_0_99
*950 FILLER_10_121
*951 FILLER_10_128
*952 FILLER_10_135
*953 FILLER_10_139
*954 FILLER_10_141
*955 FILLER_10_153
*956 FILLER_10_165
*957 FILLER_10_177
*958 FILLER_10_189
*959 FILLER_10_195
*960 FILLER_10_197
*961 FILLER_10_209
*962 FILLER_10_221
*963 FILLER_10_233
*964 FILLER_10_245
*965 FILLER_10_251
*966 FILLER_10_253
*967 FILLER_10_26
*968 FILLER_10_265
*969 FILLER_10_277
*970 FILLER_10_289
*971 FILLER_10_29
*972 FILLER_10_294
*973 FILLER_10_3
*974 FILLER_10_306
*975 FILLER_10_309
*976 FILLER_10_321
*977 FILLER_10_333
*978 FILLER_10_34
*979 FILLER_10_345
*980 FILLER_10_357
*981 FILLER_10_363
*982 FILLER_10_365
*983 FILLER_10_377
*984 FILLER_10_389
*985 FILLER_10_401
*986 FILLER_10_405
*987 FILLER_10_41
*988 FILLER_10_48
*989 FILLER_10_54
*990 FILLER_10_76
*991 FILLER_10_85
*992 FILLER_10_96
*993 FILLER_11_103
*994 FILLER_11_110
*995 FILLER_11_113
*996 FILLER_11_118
*997 FILLER_11_125
*998 FILLER_11_132
*999 FILLER_11_143
*1000 FILLER_11_150
*1001 FILLER_11_162
*1002 FILLER_11_169
*1003 FILLER_11_181
*1004 FILLER_11_193
*1005 FILLER_11_205
*1006 FILLER_11_210
*1007 FILLER_11_221
*1008 FILLER_11_225
*1009 FILLER_11_237
*1010 FILLER_11_249
*1011 FILLER_11_261
*1012 FILLER_11_273
*1013 FILLER_11_279
*1014 FILLER_11_281
*1015 FILLER_11_293
*1016 FILLER_11_3
*1017 FILLER_11_305
*1018 FILLER_11_317
*1019 FILLER_11_329
*1020 FILLER_11_33
*1021 FILLER_11_335
*1022 FILLER_11_337
*1023 FILLER_11_349
*1024 FILLER_11_360
*1025 FILLER_11_372
*1026 FILLER_11_384
*1027 FILLER_11_393
*1028 FILLER_11_40
*1029 FILLER_11_405
*1030 FILLER_11_47
*1031 FILLER_11_54
*1032 FILLER_11_57
*1033 FILLER_11_63
*1034 FILLER_11_67
*1035 FILLER_11_8
*1036 FILLER_11_91
*1037 FILLER_11_99
*1038 FILLER_12_120
*1039 FILLER_12_127
*1040 FILLER_12_134
*1041 FILLER_12_141
*1042 FILLER_12_146
*1043 FILLER_12_153
*1044 FILLER_12_165
*1045 FILLER_12_177
*1046 FILLER_12_189
*1047 FILLER_12_195
*1048 FILLER_12_197
*1049 FILLER_12_209
*1050 FILLER_12_221
*1051 FILLER_12_233
*1052 FILLER_12_245
*1053 FILLER_12_251
*1054 FILLER_12_253
*1055 FILLER_12_26
*1056 FILLER_12_264
*1057 FILLER_12_276
*1058 FILLER_12_288
*1059 FILLER_12_29
*1060 FILLER_12_3
*1061 FILLER_12_300
*1062 FILLER_12_309
*1063 FILLER_12_321
*1064 FILLER_12_333
*1065 FILLER_12_345
*1066 FILLER_12_357
*1067 FILLER_12_363
*1068 FILLER_12_365
*1069 FILLER_12_377
*1070 FILLER_12_389
*1071 FILLER_12_405
*1072 FILLER_12_58
*1073 FILLER_12_82
*1074 FILLER_12_85
*1075 FILLER_12_96
*1076 FILLER_13_10
*1077 FILLER_13_103
*1078 FILLER_13_110
*1079 FILLER_13_113
*1080 FILLER_13_125
*1081 FILLER_13_132
*1082 FILLER_13_141
*1083 FILLER_13_148
*1084 FILLER_13_155
*1085 FILLER_13_167
*1086 FILLER_13_169
*1087 FILLER_13_17
*1088 FILLER_13_181
*1089 FILLER_13_193
*1090 FILLER_13_205
*1091 FILLER_13_217
*1092 FILLER_13_223
*1093 FILLER_13_225
*1094 FILLER_13_237
*1095 FILLER_13_249
*1096 FILLER_13_261
*1097 FILLER_13_273
*1098 FILLER_13_279
*1099 FILLER_13_281
*1100 FILLER_13_293
*1101 FILLER_13_3
*1102 FILLER_13_305
*1103 FILLER_13_317
*1104 FILLER_13_329
*1105 FILLER_13_335
*1106 FILLER_13_337
*1107 FILLER_13_349
*1108 FILLER_13_364
*1109 FILLER_13_376
*1110 FILLER_13_388
*1111 FILLER_13_393
*1112 FILLER_13_405
*1113 FILLER_13_44
*1114 FILLER_13_51
*1115 FILLER_13_55
*1116 FILLER_13_57
*1117 FILLER_13_80
*1118 FILLER_13_89
*1119 FILLER_13_96
*1120 FILLER_14_108
*1121 FILLER_14_112
*1122 FILLER_14_116
*1123 FILLER_14_12
*1124 FILLER_14_123
*1125 FILLER_14_130
*1126 FILLER_14_137
*1127 FILLER_14_141
*1128 FILLER_14_146
*1129 FILLER_14_153
*1130 FILLER_14_160
*1131 FILLER_14_168
*1132 FILLER_14_173
*1133 FILLER_14_185
*1134 FILLER_14_19
*1135 FILLER_14_192
*1136 FILLER_14_197
*1137 FILLER_14_202
*1138 FILLER_14_210
*1139 FILLER_14_214
*1140 FILLER_14_226
*1141 FILLER_14_238
*1142 FILLER_14_250
*1143 FILLER_14_253
*1144 FILLER_14_26
*1145 FILLER_14_265
*1146 FILLER_14_277
*1147 FILLER_14_289
*1148 FILLER_14_29
*1149 FILLER_14_298
*1150 FILLER_14_3
*1151 FILLER_14_306
*1152 FILLER_14_309
*1153 FILLER_14_314
*1154 FILLER_14_326
*1155 FILLER_14_338
*1156 FILLER_14_34
*1157 FILLER_14_350
*1158 FILLER_14_359
*1159 FILLER_14_363
*1160 FILLER_14_365
*1161 FILLER_14_377
*1162 FILLER_14_389
*1163 FILLER_14_401
*1164 FILLER_14_58
*1165 FILLER_14_64
*1166 FILLER_14_68
*1167 FILLER_14_75
*1168 FILLER_14_82
*1169 FILLER_14_85
*1170 FILLER_15_110
*1171 FILLER_15_113
*1172 FILLER_15_119
*1173 FILLER_15_129
*1174 FILLER_15_133
*1175 FILLER_15_137
*1176 FILLER_15_145
*1177 FILLER_15_150
*1178 FILLER_15_157
*1179 FILLER_15_16
*1180 FILLER_15_164
*1181 FILLER_15_169
*1182 FILLER_15_174
*1183 FILLER_15_180
*1184 FILLER_15_184
*1185 FILLER_15_196
*1186 FILLER_15_203
*1187 FILLER_15_215
*1188 FILLER_15_220
*1189 FILLER_15_225
*1190 FILLER_15_23
*1191 FILLER_15_233
*1192 FILLER_15_238
*1193 FILLER_15_250
*1194 FILLER_15_262
*1195 FILLER_15_274
*1196 FILLER_15_281
*1197 FILLER_15_286
*1198 FILLER_15_3
*1199 FILLER_15_301
*1200 FILLER_15_313
*1201 FILLER_15_325
*1202 FILLER_15_333
*1203 FILLER_15_337
*1204 FILLER_15_34
*1205 FILLER_15_349
*1206 FILLER_15_358
*1207 FILLER_15_370
*1208 FILLER_15_382
*1209 FILLER_15_390
*1210 FILLER_15_393
*1211 FILLER_15_405
*1212 FILLER_15_42
*1213 FILLER_15_47
*1214 FILLER_15_54
*1215 FILLER_15_57
*1216 FILLER_15_61
*1217 FILLER_15_65
*1218 FILLER_15_72
*1219 FILLER_15_79
*1220 FILLER_15_86
*1221 FILLER_15_9
*1222 FILLER_16_109
*1223 FILLER_16_116
*1224 FILLER_16_125
*1225 FILLER_16_129
*1226 FILLER_16_133
*1227 FILLER_16_139
*1228 FILLER_16_141
*1229 FILLER_16_146
*1230 FILLER_16_155
*1231 FILLER_16_162
*1232 FILLER_16_174
*1233 FILLER_16_181
*1234 FILLER_16_193
*1235 FILLER_16_197
*1236 FILLER_16_208
*1237 FILLER_16_215
*1238 FILLER_16_228
*1239 FILLER_16_235
*1240 FILLER_16_247
*1241 FILLER_16_251
*1242 FILLER_16_253
*1243 FILLER_16_26
*1244 FILLER_16_265
*1245 FILLER_16_277
*1246 FILLER_16_289
*1247 FILLER_16_29
*1248 FILLER_16_3
*1249 FILLER_16_301
*1250 FILLER_16_307
*1251 FILLER_16_309
*1252 FILLER_16_321
*1253 FILLER_16_33
*1254 FILLER_16_333
*1255 FILLER_16_345
*1256 FILLER_16_357
*1257 FILLER_16_363
*1258 FILLER_16_365
*1259 FILLER_16_37
*1260 FILLER_16_377
*1261 FILLER_16_389
*1262 FILLER_16_401
*1263 FILLER_16_405
*1264 FILLER_16_62
*1265 FILLER_16_69
*1266 FILLER_16_81
*1267 FILLER_16_85
*1268 FILLER_16_97
*1269 FILLER_17_104
*1270 FILLER_17_113
*1271 FILLER_17_12
*1272 FILLER_17_123
*1273 FILLER_17_131
*1274 FILLER_17_135
*1275 FILLER_17_142
*1276 FILLER_17_149
*1277 FILLER_17_156
*1278 FILLER_17_162
*1279 FILLER_17_166
*1280 FILLER_17_169
*1281 FILLER_17_174
*1282 FILLER_17_181
*1283 FILLER_17_185
*1284 FILLER_17_189
*1285 FILLER_17_193
*1286 FILLER_17_197
*1287 FILLER_17_204
*1288 FILLER_17_213
*1289 FILLER_17_220
*1290 FILLER_17_225
*1291 FILLER_17_230
*1292 FILLER_17_237
*1293 FILLER_17_249
*1294 FILLER_17_261
*1295 FILLER_17_273