*SPEF "ieee 1481-1999"
*DESIGN "user_project_wrapper"
*DATE "11:11:11 Fri 11 11, 1111"
*VENDOR "OpenRCX"
*PROGRAM "Parallel Extraction"
*VERSION "1.0"
*DESIGN_FLOW "NAME_SCOPE LOCAL" "PIN_CAP NONE"
*DIVIDER /
*DELIMITER :
*BUS_DELIMITER []
*T_UNIT 1 NS
*C_UNIT 1 PF
*R_UNIT 1 OHM
*L_UNIT 1 HENRY

*NAME_MAP
*1 analog_io[0]
*2 analog_io[10]
*3 analog_io[11]
*4 analog_io[12]
*5 analog_io[13]
*6 analog_io[14]
*7 analog_io[15]
*8 analog_io[16]
*9 analog_io[17]
*10 analog_io[18]
*11 analog_io[19]
*12 analog_io[1]
*13 analog_io[20]
*14 analog_io[21]
*15 analog_io[22]
*16 analog_io[23]
*17 analog_io[24]
*18 analog_io[25]
*19 analog_io[26]
*20 analog_io[27]
*21 analog_io[28]
*22 analog_io[2]
*23 analog_io[3]
*24 analog_io[4]
*25 analog_io[5]
*26 analog_io[6]
*27 analog_io[7]
*28 analog_io[8]
*29 analog_io[9]
*30 io_in[0]
*31 io_in[10]
*32 io_in[11]
*33 io_in[12]
*34 io_in[13]
*35 io_in[14]
*36 io_in[15]
*37 io_in[16]
*38 io_in[17]
*39 io_in[18]
*40 io_in[19]
*41 io_in[1]
*42 io_in[20]
*43 io_in[21]
*44 io_in[22]
*45 io_in[23]
*46 io_in[24]
*47 io_in[25]
*48 io_in[26]
*49 io_in[27]
*50 io_in[28]
*51 io_in[29]
*52 io_in[2]
*53 io_in[30]
*54 io_in[31]
*55 io_in[32]
*56 io_in[33]
*57 io_in[34]
*58 io_in[35]
*59 io_in[36]
*60 io_in[37]
*61 io_in[3]
*62 io_in[4]
*63 io_in[5]
*64 io_in[6]
*65 io_in[7]
*66 io_in[8]
*67 io_in[9]
*68 io_oeb[0]
*69 io_oeb[10]
*70 io_oeb[11]
*71 io_oeb[12]
*72 io_oeb[13]
*73 io_oeb[14]
*74 io_oeb[15]
*75 io_oeb[16]
*76 io_oeb[17]
*77 io_oeb[18]
*78 io_oeb[19]
*79 io_oeb[1]
*80 io_oeb[20]
*81 io_oeb[21]
*82 io_oeb[22]
*83 io_oeb[23]
*84 io_oeb[24]
*85 io_oeb[25]
*86 io_oeb[26]
*87 io_oeb[27]
*88 io_oeb[28]
*89 io_oeb[29]
*90 io_oeb[2]
*91 io_oeb[30]
*92 io_oeb[31]
*93 io_oeb[32]
*94 io_oeb[33]
*95 io_oeb[34]
*96 io_oeb[35]
*97 io_oeb[36]
*98 io_oeb[37]
*99 io_oeb[3]
*100 io_oeb[4]
*101 io_oeb[5]
*102 io_oeb[6]
*103 io_oeb[7]
*104 io_oeb[8]
*105 io_oeb[9]
*106 io_out[0]
*107 io_out[10]
*108 io_out[11]
*109 io_out[12]
*110 io_out[13]
*111 io_out[14]
*112 io_out[15]
*113 io_out[16]
*114 io_out[17]
*115 io_out[18]
*116 io_out[19]
*117 io_out[1]
*118 io_out[20]
*119 io_out[21]
*120 io_out[22]
*121 io_out[23]
*122 io_out[24]
*123 io_out[25]
*124 io_out[26]
*125 io_out[27]
*126 io_out[28]
*127 io_out[29]
*128 io_out[2]
*129 io_out[30]
*130 io_out[31]
*131 io_out[32]
*132 io_out[33]
*133 io_out[34]
*134 io_out[35]
*135 io_out[36]
*136 io_out[37]
*137 io_out[3]
*138 io_out[4]
*139 io_out[5]
*140 io_out[6]
*141 io_out[7]
*142 io_out[8]
*143 io_out[9]
*144 la_data_in[0]
*145 la_data_in[100]
*146 la_data_in[101]
*147 la_data_in[102]
*148 la_data_in[103]
*149 la_data_in[104]
*150 la_data_in[105]
*151 la_data_in[106]
*152 la_data_in[107]
*153 la_data_in[108]
*154 la_data_in[109]
*155 la_data_in[10]
*156 la_data_in[110]
*157 la_data_in[111]
*158 la_data_in[112]
*159 la_data_in[113]
*160 la_data_in[114]
*161 la_data_in[115]
*162 la_data_in[116]
*163 la_data_in[117]
*164 la_data_in[118]
*165 la_data_in[119]
*166 la_data_in[11]
*167 la_data_in[120]
*168 la_data_in[121]
*169 la_data_in[122]
*170 la_data_in[123]
*171 la_data_in[124]
*172 la_data_in[125]
*173 la_data_in[126]
*174 la_data_in[127]
*175 la_data_in[12]
*176 la_data_in[13]
*177 la_data_in[14]
*178 la_data_in[15]
*179 la_data_in[16]
*180 la_data_in[17]
*181 la_data_in[18]
*182 la_data_in[19]
*183 la_data_in[1]
*184 la_data_in[20]
*185 la_data_in[21]
*186 la_data_in[22]
*187 la_data_in[23]
*188 la_data_in[24]
*189 la_data_in[25]
*190 la_data_in[26]
*191 la_data_in[27]
*192 la_data_in[28]
*193 la_data_in[29]
*194 la_data_in[2]
*195 la_data_in[30]
*196 la_data_in[31]
*197 la_data_in[32]
*198 la_data_in[33]
*199 la_data_in[34]
*200 la_data_in[35]
*201 la_data_in[36]
*202 la_data_in[37]
*203 la_data_in[38]
*204 la_data_in[39]
*205 la_data_in[3]
*206 la_data_in[40]
*207 la_data_in[41]
*208 la_data_in[42]
*209 la_data_in[43]
*210 la_data_in[44]
*211 la_data_in[45]
*212 la_data_in[46]
*213 la_data_in[47]
*214 la_data_in[48]
*215 la_data_in[49]
*216 la_data_in[4]
*217 la_data_in[50]
*218 la_data_in[51]
*219 la_data_in[52]
*220 la_data_in[53]
*221 la_data_in[54]
*222 la_data_in[55]
*223 la_data_in[56]
*224 la_data_in[57]
*225 la_data_in[58]
*226 la_data_in[59]
*227 la_data_in[5]
*228 la_data_in[60]
*229 la_data_in[61]
*230 la_data_in[62]
*231 la_data_in[63]
*232 la_data_in[64]
*233 la_data_in[65]
*234 la_data_in[66]
*235 la_data_in[67]
*236 la_data_in[68]
*237 la_data_in[69]
*238 la_data_in[6]
*239 la_data_in[70]
*240 la_data_in[71]
*241 la_data_in[72]
*242 la_data_in[73]
*243 la_data_in[74]
*244 la_data_in[75]
*245 la_data_in[76]
*246 la_data_in[77]
*247 la_data_in[78]
*248 la_data_in[79]
*249 la_data_in[7]
*250 la_data_in[80]
*251 la_data_in[81]
*252 la_data_in[82]
*253 la_data_in[83]
*254 la_data_in[84]
*255 la_data_in[85]
*256 la_data_in[86]
*257 la_data_in[87]
*258 la_data_in[88]
*259 la_data_in[89]
*260 la_data_in[8]
*261 la_data_in[90]
*262 la_data_in[91]
*263 la_data_in[92]
*264 la_data_in[93]
*265 la_data_in[94]
*266 la_data_in[95]
*267 la_data_in[96]
*268 la_data_in[97]
*269 la_data_in[98]
*270 la_data_in[99]
*271 la_data_in[9]
*272 la_data_out[0]
*273 la_data_out[100]
*274 la_data_out[101]
*275 la_data_out[102]
*276 la_data_out[103]
*277 la_data_out[104]
*278 la_data_out[105]
*279 la_data_out[106]
*280 la_data_out[107]
*281 la_data_out[108]
*282 la_data_out[109]
*283 la_data_out[10]
*284 la_data_out[110]
*285 la_data_out[111]
*286 la_data_out[112]
*287 la_data_out[113]
*288 la_data_out[114]
*289 la_data_out[115]
*290 la_data_out[116]
*291 la_data_out[117]
*292 la_data_out[118]
*293 la_data_out[119]
*294 la_data_out[11]
*295 la_data_out[120]
*296 la_data_out[121]
*297 la_data_out[122]
*298 la_data_out[123]
*299 la_data_out[124]
*300 la_data_out[125]
*301 la_data_out[126]
*302 la_data_out[127]
*303 la_data_out[12]
*304 la_data_out[13]
*305 la_data_out[14]
*306 la_data_out[15]
*307 la_data_out[16]
*308 la_data_out[17]
*309 la_data_out[18]
*310 la_data_out[19]
*311 la_data_out[1]
*312 la_data_out[20]
*313 la_data_out[21]
*314 la_data_out[22]
*315 la_data_out[23]
*316 la_data_out[24]
*317 la_data_out[25]
*318 la_data_out[26]
*319 la_data_out[27]
*320 la_data_out[28]
*321 la_data_out[29]
*322 la_data_out[2]
*323 la_data_out[30]
*324 la_data_out[31]
*325 la_data_out[32]
*326 la_data_out[33]
*327 la_data_out[34]
*328 la_data_out[35]
*329 la_data_out[36]
*330 la_data_out[37]
*331 la_data_out[38]
*332 la_data_out[39]
*333 la_data_out[3]
*334 la_data_out[40]
*335 la_data_out[41]
*336 la_data_out[42]
*337 la_data_out[43]
*338 la_data_out[44]
*339 la_data_out[45]
*340 la_data_out[46]
*341 la_data_out[47]
*342 la_data_out[48]
*343 la_data_out[49]
*344 la_data_out[4]
*345 la_data_out[50]
*346 la_data_out[51]
*347 la_data_out[52]
*348 la_data_out[53]
*349 la_data_out[54]
*350 la_data_out[55]
*351 la_data_out[56]
*352 la_data_out[57]
*353 la_data_out[58]
*354 la_data_out[59]
*355 la_data_out[5]
*356 la_data_out[60]
*357 la_data_out[61]
*358 la_data_out[62]
*359 la_data_out[63]
*360 la_data_out[64]
*361 la_data_out[65]
*362 la_data_out[66]
*363 la_data_out[67]
*364 la_data_out[68]
*365 la_data_out[69]
*366 la_data_out[6]
*367 la_data_out[70]
*368 la_data_out[71]
*369 la_data_out[72]
*370 la_data_out[73]
*371 la_data_out[74]
*372 la_data_out[75]
*373 la_data_out[76]
*374 la_data_out[77]
*375 la_data_out[78]
*376 la_data_out[79]
*377 la_data_out[7]
*378 la_data_out[80]
*379 la_data_out[81]
*380 la_data_out[82]
*381 la_data_out[83]
*382 la_data_out[84]
*383 la_data_out[85]
*384 la_data_out[86]
*385 la_data_out[87]
*386 la_data_out[88]
*387 la_data_out[89]
*388 la_data_out[8]
*389 la_data_out[90]
*390 la_data_out[91]
*391 la_data_out[92]
*392 la_data_out[93]
*393 la_data_out[94]
*394 la_data_out[95]
*395 la_data_out[96]
*396 la_data_out[97]
*397 la_data_out[98]
*398 la_data_out[99]
*399 la_data_out[9]
*400 la_oenb[0]
*401 la_oenb[100]
*402 la_oenb[101]
*403 la_oenb[102]
*404 la_oenb[103]
*405 la_oenb[104]
*406 la_oenb[105]
*407 la_oenb[106]
*408 la_oenb[107]
*409 la_oenb[108]
*410 la_oenb[109]
*411 la_oenb[10]
*412 la_oenb[110]
*413 la_oenb[111]
*414 la_oenb[112]
*415 la_oenb[113]
*416 la_oenb[114]
*417 la_oenb[115]
*418 la_oenb[116]
*419 la_oenb[117]
*420 la_oenb[118]
*421 la_oenb[119]
*422 la_oenb[11]
*423 la_oenb[120]
*424 la_oenb[121]
*425 la_oenb[122]
*426 la_oenb[123]
*427 la_oenb[124]
*428 la_oenb[125]
*429 la_oenb[126]
*430 la_oenb[127]
*431 la_oenb[12]
*432 la_oenb[13]
*433 la_oenb[14]
*434 la_oenb[15]
*435 la_oenb[16]
*436 la_oenb[17]
*437 la_oenb[18]
*438 la_oenb[19]
*439 la_oenb[1]
*440 la_oenb[20]
*441 la_oenb[21]
*442 la_oenb[22]
*443 la_oenb[23]
*444 la_oenb[24]
*445 la_oenb[25]
*446 la_oenb[26]
*447 la_oenb[27]
*448 la_oenb[28]
*449 la_oenb[29]
*450 la_oenb[2]
*451 la_oenb[30]
*452 la_oenb[31]
*453 la_oenb[32]
*454 la_oenb[33]
*455 la_oenb[34]
*456 la_oenb[35]
*457 la_oenb[36]
*458 la_oenb[37]
*459 la_oenb[38]
*460 la_oenb[39]
*461 la_oenb[3]
*462 la_oenb[40]
*463 la_oenb[41]
*464 la_oenb[42]
*465 la_oenb[43]
*466 la_oenb[44]
*467 la_oenb[45]
*468 la_oenb[46]
*469 la_oenb[47]
*470 la_oenb[48]
*471 la_oenb[49]
*472 la_oenb[4]
*473 la_oenb[50]
*474 la_oenb[51]
*475 la_oenb[52]
*476 la_oenb[53]
*477 la_oenb[54]
*478 la_oenb[55]
*479 la_oenb[56]
*480 la_oenb[57]
*481 la_oenb[58]
*482 la_oenb[59]
*483 la_oenb[5]
*484 la_oenb[60]
*485 la_oenb[61]
*486 la_oenb[62]
*487 la_oenb[63]
*488 la_oenb[64]
*489 la_oenb[65]
*490 la_oenb[66]
*491 la_oenb[67]
*492 la_oenb[68]
*493 la_oenb[69]
*494 la_oenb[6]
*495 la_oenb[70]
*496 la_oenb[71]
*497 la_oenb[72]
*498 la_oenb[73]
*499 la_oenb[74]
*500 la_oenb[75]
*501 la_oenb[76]
*502 la_oenb[77]
*503 la_oenb[78]
*504 la_oenb[79]
*505 la_oenb[7]
*506 la_oenb[80]
*507 la_oenb[81]
*508 la_oenb[82]
*509 la_oenb[83]
*510 la_oenb[84]
*511 la_oenb[85]
*512 la_oenb[86]
*513 la_oenb[87]
*514 la_oenb[88]
*515 la_oenb[89]
*516 la_oenb[8]
*517 la_oenb[90]
*518 la_oenb[91]
*519 la_oenb[92]
*520 la_oenb[93]
*521 la_oenb[94]
*522 la_oenb[95]
*523 la_oenb[96]
*524 la_oenb[97]
*525 la_oenb[98]
*526 la_oenb[99]
*527 la_oenb[9]
*528 user_clock2
*529 user_irq[0]
*530 user_irq[1]
*531 user_irq[2]
*540 wb_clk_i
*541 wb_rst_i
*542 wbs_ack_o
*543 wbs_adr_i[0]
*544 wbs_adr_i[10]
*545 wbs_adr_i[11]
*546 wbs_adr_i[12]
*547 wbs_adr_i[13]
*548 wbs_adr_i[14]
*549 wbs_adr_i[15]
*550 wbs_adr_i[16]
*551 wbs_adr_i[17]
*552 wbs_adr_i[18]
*553 wbs_adr_i[19]
*554 wbs_adr_i[1]
*555 wbs_adr_i[20]
*556 wbs_adr_i[21]
*557 wbs_adr_i[22]
*558 wbs_adr_i[23]
*559 wbs_adr_i[24]
*560 wbs_adr_i[25]
*561 wbs_adr_i[26]
*562 wbs_adr_i[27]
*563 wbs_adr_i[28]
*564 wbs_adr_i[29]
*565 wbs_adr_i[2]
*566 wbs_adr_i[30]
*567 wbs_adr_i[31]
*568 wbs_adr_i[3]
*569 wbs_adr_i[4]
*570 wbs_adr_i[5]
*571 wbs_adr_i[6]
*572 wbs_adr_i[7]
*573 wbs_adr_i[8]
*574 wbs_adr_i[9]
*575 wbs_cyc_i
*576 wbs_dat_i[0]
*577 wbs_dat_i[10]
*578 wbs_dat_i[11]
*579 wbs_dat_i[12]
*580 wbs_dat_i[13]
*581 wbs_dat_i[14]
*582 wbs_dat_i[15]
*583 wbs_dat_i[16]
*584 wbs_dat_i[17]
*585 wbs_dat_i[18]
*586 wbs_dat_i[19]
*587 wbs_dat_i[1]
*588 wbs_dat_i[20]
*589 wbs_dat_i[21]
*590 wbs_dat_i[22]
*591 wbs_dat_i[23]
*592 wbs_dat_i[24]
*593 wbs_dat_i[25]
*594 wbs_dat_i[26]
*595 wbs_dat_i[27]
*596 wbs_dat_i[28]
*597 wbs_dat_i[29]
*598 wbs_dat_i[2]
*599 wbs_dat_i[30]
*600 wbs_dat_i[31]
*601 wbs_dat_i[3]
*602 wbs_dat_i[4]
*603 wbs_dat_i[5]
*604 wbs_dat_i[6]
*605 wbs_dat_i[7]
*606 wbs_dat_i[8]
*607 wbs_dat_i[9]
*608 wbs_dat_o[0]
*609 wbs_dat_o[10]
*610 wbs_dat_o[11]
*611 wbs_dat_o[12]
*612 wbs_dat_o[13]
*613 wbs_dat_o[14]
*614 wbs_dat_o[15]
*615 wbs_dat_o[16]
*616 wbs_dat_o[17]
*617 wbs_dat_o[18]
*618 wbs_dat_o[19]
*619 wbs_dat_o[1]
*620 wbs_dat_o[20]
*621 wbs_dat_o[21]
*622 wbs_dat_o[22]
*623 wbs_dat_o[23]
*624 wbs_dat_o[24]
*625 wbs_dat_o[25]
*626 wbs_dat_o[26]
*627 wbs_dat_o[27]
*628 wbs_dat_o[28]
*629 wbs_dat_o[29]
*630 wbs_dat_o[2]
*631 wbs_dat_o[30]
*632 wbs_dat_o[31]
*633 wbs_dat_o[3]
*634 wbs_dat_o[4]
*635 wbs_dat_o[5]
*636 wbs_dat_o[6]
*637 wbs_dat_o[7]
*638 wbs_dat_o[8]
*639 wbs_dat_o[9]
*640 wbs_sel_i[0]
*641 wbs_sel_i[1]
*642 wbs_sel_i[2]
*643 wbs_sel_i[3]
*644 wbs_stb_i
*645 wbs_we_i
*646 ccff_tail_fm
*647 ANTENNA_1
*648 ANTENNA_10
*649 ANTENNA_11
*650 ANTENNA_12
*651 ANTENNA_13
*652 ANTENNA_14
*653 ANTENNA_15
*654 ANTENNA_16
*655 ANTENNA_17
*656 ANTENNA_18
*657 ANTENNA_19
*658 ANTENNA_2
*659 ANTENNA_20
*660 ANTENNA_21
*661 ANTENNA_22
*662 ANTENNA_3
*663 ANTENNA_4
*664 ANTENNA_5
*665 ANTENNA_6
*666 ANTENNA_7
*667 ANTENNA_8
*668 ANTENNA_9
*669 FILLER_0_1005
*670 FILLER_0_1009
*671 FILLER_0_1014
*672 FILLER_0_1026
*673 FILLER_0_1034
*674 FILLER_0_1037
*675 FILLER_0_1049
*676 FILLER_0_1061
*677 FILLER_0_1065
*678 FILLER_0_1077
*679 FILLER_0_1089
*680 FILLER_0_109
*681 FILLER_0_1093
*682 FILLER_0_1105
*683 FILLER_0_1117
*684 FILLER_0_1121
*685 FILLER_0_113
*686 FILLER_0_1133
*687 FILLER_0_1145
*688 FILLER_0_1149
*689 FILLER_0_1161
*690 FILLER_0_1173
*691 FILLER_0_1177
*692 FILLER_0_1189
*693 FILLER_0_1201
*694 FILLER_0_1205
*695 FILLER_0_1217
*696 FILLER_0_1229
*697 FILLER_0_1233
*698 FILLER_0_1245
*699 FILLER_0_125
*700 FILLER_0_1257
*701 FILLER_0_1261
*702 FILLER_0_1270
*703 FILLER_0_1282
*704 FILLER_0_1289
*705 FILLER_0_1301
*706 FILLER_0_1312
*707 FILLER_0_1317
*708 FILLER_0_1329
*709 FILLER_0_1341
*710 FILLER_0_1345
*711 FILLER_0_1357
*712 FILLER_0_1369
*713 FILLER_0_137
*714 FILLER_0_1373
*715 FILLER_0_1385
*716 FILLER_0_1397
*717 FILLER_0_1401
*718 FILLER_0_141
*719 FILLER_0_1413
*720 FILLER_0_1425
*721 FILLER_0_1429
*722 FILLER_0_1438
*723 FILLER_0_1450
*724 FILLER_0_1457
*725 FILLER_0_1469
*726 FILLER_0_1481
*727 FILLER_0_1485
*728 FILLER_0_1497
*729 FILLER_0_1509
*730 FILLER_0_1513
*731 FILLER_0_1522
*732 FILLER_0_153
*733 FILLER_0_1534
*734 FILLER_0_1541
*735 FILLER_0_1553
*736 FILLER_0_1565
*737 FILLER_0_1569
*738 FILLER_0_157
*739 FILLER_0_1581
*740 FILLER_0_1593
*741 FILLER_0_1597
*742 FILLER_0_1606
*743 FILLER_0_1618
*744 FILLER_0_1625
*745 FILLER_0_1637
*746 FILLER_0_1648
*747 FILLER_0_165
*748 FILLER_0_1653
*749 FILLER_0_1665
*750 FILLER_0_1677
*751 FILLER_0_1681
*752 FILLER_0_169
*753 FILLER_0_1693
*754 FILLER_0_1697
*755 FILLER_0_1705
*756 FILLER_0_1709
*757 FILLER_0_1721
*758 FILLER_0_1733
*759 FILLER_0_1737
*760 FILLER_0_1742
*761 FILLER_0_1754
*762 FILLER_0_1762
*763 FILLER_0_1765
*764 FILLER_0_1777
*765 FILLER_0_1789
*766 FILLER_0_1793
*767 FILLER_0_1805
*768 FILLER_0_181
*769 FILLER_0_1817
*770 FILLER_0_1821
*771 FILLER_0_1833
*772 FILLER_0_1845
*773 FILLER_0_1849
*774 FILLER_0_1861
*775 FILLER_0_1865
*776 FILLER_0_1873
*777 FILLER_0_1877
*778 FILLER_0_1889
*779 FILLER_0_1901
*780 FILLER_0_1905
*781 FILLER_0_1917
*782 FILLER_0_1929
*783 FILLER_0_193
*784 FILLER_0_1933
*785 FILLER_0_1945
*786 FILLER_0_1957
*787 FILLER_0_1961
*788 FILLER_0_197
*789 FILLER_0_1973
*790 FILLER_0_1985
*791 FILLER_0_1989
*792 FILLER_0_20
*793 FILLER_0_2001
*794 FILLER_0_2013
*795 FILLER_0_2017
*796 FILLER_0_202
*797 FILLER_0_2029
*798 FILLER_0_2033
*799 FILLER_0_2041
*800 FILLER_0_2045
*801 FILLER_0_2057
*802 FILLER_0_2069
*803 FILLER_0_2073
*804 FILLER_0_2085
*805 FILLER_0_2097
*806 FILLER_0_2101
*807 FILLER_0_2113
*808 FILLER_0_2124
*809 FILLER_0_2129
*810 FILLER_0_214
*811 FILLER_0_2141
*812 FILLER_0_2153
*813 FILLER_0_2157
*814 FILLER_0_2169
*815 FILLER_0_2181
*816 FILLER_0_2185
*817 FILLER_0_2197
*818 FILLER_0_2209
*819 FILLER_0_2213
*820 FILLER_0_222
*821 FILLER_0_2225
*822 FILLER_0_2237
*823 FILLER_0_2241
*824 FILLER_0_225
*825 FILLER_0_2253
*826 FILLER_0_2265
*827 FILLER_0_2269
*828 FILLER_0_2281
*829 FILLER_0_2293
*830 FILLER_0_2297
*831 FILLER_0_2309
*832 FILLER_0_2321
*833 FILLER_0_2325
*834 FILLER_0_2337
*835 FILLER_0_2349
*836 FILLER_0_2353
*837 FILLER_0_2365
*838 FILLER_0_237
*839 FILLER_0_2377
*840 FILLER_0_2381
*841 FILLER_0_2393
*842 FILLER_0_2405
*843 FILLER_0_2409
*844 FILLER_0_2418
*845 FILLER_0_2430
*846 FILLER_0_2437
*847 FILLER_0_2449
*848 FILLER_0_2461
*849 FILLER_0_2465
*850 FILLER_0_2477
*851 FILLER_0_2489
*852 FILLER_0_249
*853 FILLER_0_2493
*854 FILLER_0_2505
*855 FILLER_0_2517
*856 FILLER_0_2521
*857 FILLER_0_253
*858 FILLER_0_2533
*859 FILLER_0_2545
*860 FILLER_0_2549
*861 FILLER_0_2561
*862 FILLER_0_2573
*863 FILLER_0_2577
*864 FILLER_0_2589
*865 FILLER_0_2593
*866 FILLER_0_2601
*867 FILLER_0_2605
*868 FILLER_0_2617
*869 FILLER_0_2629
*870 FILLER_0_2633
*871 FILLER_0_2638
*872 FILLER_0_265
*873 FILLER_0_2650
*874 FILLER_0_2658
*875 FILLER_0_2661
*876 FILLER_0_2673
*877 FILLER_0_2677
*878 FILLER_0_2685
*879 FILLER_0_2689
*880 FILLER_0_2701
*881 FILLER_0_2713
*882 FILLER_0_2717
*883 FILLER_0_2729
*884 FILLER_0_2741
*885 FILLER_0_2745
*886 FILLER_0_2757
*887 FILLER_0_2761
*888 FILLER_0_2769
*889 FILLER_0_277
*890 FILLER_0_2773
*891 FILLER_0_2785
*892 FILLER_0_2797
*893 FILLER_0_2801
*894 FILLER_0_281
*895 FILLER_0_2813
*896 FILLER_0_2825
*897 FILLER_0_2829
*898 FILLER_0_2841
*899 FILLER_0_2853
*900 FILLER_0_2857
*901 FILLER_0_2869
*902 FILLER_0_2881
*903 FILLER_0_2885
*904 FILLER_0_2890
*905 FILLER_0_29
*906 FILLER_0_2902
*907 FILLER_0_2910
*908 FILLER_0_2913
*909 FILLER_0_2925
*910 FILLER_0_293
*911 FILLER_0_2937
*912 FILLER_0_2941
*913 FILLER_0_2953
*914 FILLER_0_2965
*915 FILLER_0_2969
*916 FILLER_0_2981
*917 FILLER_0_2993
*918 FILLER_0_2997
*919 FILLER_0_3
*920 FILLER_0_3009
*921 FILLER_0_3021
*922 FILLER_0_3025
*923 FILLER_0_3037
*924 FILLER_0_3049
*925 FILLER_0_305
*926 FILLER_0_3053
*927 FILLER_0_3062
*928 FILLER_0_3074
*929 FILLER_0_3081
*930 FILLER_0_309
*931 FILLER_0_3093
*932 FILLER_0_3105
*933 FILLER_0_3109
*934 FILLER_0_3121
*935 FILLER_0_3133
*936 FILLER_0_3137
*937 FILLER_0_3149
*938 FILLER_0_3161
*939 FILLER_0_3165
*940 FILLER_0_3177
*941 FILLER_0_3189
*942 FILLER_0_3193
*943 FILLER_0_3205
*944 FILLER_0_321
*945 FILLER_0_3217
*946 FILLER_0_3221
*947 FILLER_0_3233
*948 FILLER_0_3245
*949 FILLER_0_3249
*950 FILLER_0_325
*951 FILLER_0_3261
*952 FILLER_0_3273
*953 FILLER_0_3277
*954 FILLER_0_3289
*955 FILLER_0_3301
*956 FILLER_0_3305
*957 FILLER_0_3316
*958 FILLER_0_3328
*959 FILLER_0_333
*960 FILLER_0_3333
*961 FILLER_0_3345
*962 FILLER_0_3357
*963 FILLER_0_3361
*964 FILLER_0_337
*965 FILLER_0_3373
*966 FILLER_0_3385
*967 FILLER_0_3389
*968 FILLER_0_3401
*969 FILLER_0_3413
*970 FILLER_0_3417
*971 FILLER_0_3429
*972 FILLER_0_3441
*973 FILLER_0_3445
*974 FILLER_0_3450
*975 FILLER_0_3462
*976 FILLER_0_3470
*977 FILLER_0_3473
*978 FILLER_0_3485
*979 FILLER_0_349
*980 FILLER_0_3497
*981 FILLER_0_3501
*982 FILLER_0_3513
*983 FILLER_0_3525
*984 FILLER_0_3529
*985 FILLER_0_3534
*986 FILLER_0_3546
*987 FILLER_0_3554
*988 FILLER_0_3557
*989 FILLER_0_3569
*990 FILLER_0_3581
*991 FILLER_0_3585
*992 FILLER_0_3597
*993 FILLER_0_3609
*994 FILLER_0_361
*995 FILLER_0_3613
*996 FILLER_0_3625
*997 FILLER_0_3637
*998 FILLER_0_3641
*999 FILLER_0_365
*1000 FILLER_0_3653
*1001 FILLER_0_3665
*1002 FILLER_0_3669
*1003 FILLER_0_3681
*1004 FILLER_0_3693
*1005 FILLER_0_3697
*1006 FILLER_0_3709
*1007 FILLER_0_3721
*1008 FILLER_0_3725
*1009 FILLER_0_3737
*1010 FILLER_0_3741
*1011 FILLER_0_3749
*1012 FILLER_0_3753
*1013 FILLER_0_3765
*1014 FILLER_0_377
*1015 FILLER_0_3777
*1016 FILLER_0_3781
*1017 FILLER_0_3793
*1018 FILLER_0_3805
*1019 FILLER_0_3809
*1020 FILLER_0_3821
*1021 FILLER_0_3832
*1022 FILLER_0_3837
*1023 FILLER_0_3849
*1024 FILLER_0_3861
*1025 FILLER_0_3865
*1026 FILLER_0_3874
*1027 FILLER_0_3886
*1028 FILLER_0_389
*1029 FILLER_0_3893
*1030 FILLER_0_3905
*1031 FILLER_0_3917
*1032 FILLER_0_3921
*1033 FILLER_0_393
*1034 FILLER_0_3933
*1035 FILLER_0_3945
*1036 FILLER_0_3949
*1037 FILLER_0_3961
*1038 FILLER_0_3973
*1039 FILLER_0_3977
*1040 FILLER_0_3989
*1041 FILLER_0_4001
*1042 FILLER_0_4005
*1043 FILLER_0_4017
*1044 FILLER_0_4029
*1045 FILLER_0_4033
*1046 FILLER_0_4045
*1047 FILLER_0_405
*1048 FILLER_0_4057
*1049 FILLER_0_4061
*1050 FILLER_0_4073
*1051 FILLER_0_4085
*1052 FILLER_0_4089
*1053 FILLER_0_41
*1054 FILLER_0_4101
*1055 FILLER_0_4113
*1056 FILLER_0_4117
*1057 FILLER_0_4126
*1058 FILLER_0_4138
*1059 FILLER_0_4145
*1060 FILLER_0_4157
*1061 FILLER_0_416
*1062 FILLER_0_4168
*1063 FILLER_0_4173
*1064 FILLER_0_4185
*1065 FILLER_0_4197
*1066 FILLER_0_4201
*1067 FILLER_0_421
*1068 FILLER_0_4213
*1069 FILLER_0_4225
*1070 FILLER_0_4229
*1071 FILLER_0_4241
*1072 FILLER_0_4253
*1073 FILLER_0_4257
*1074 FILLER_0_4262
*1075 FILLER_0_4274
*1076 FILLER_0_4282
*1077 FILLER_0_4285
*1078 FILLER_0_4297
*1079 FILLER_0_4301
*1080 FILLER_0_4309
*1081 FILLER_0_4313
*1082 FILLER_0_4325
*1083 FILLER_0_433
*1084 FILLER_0_4337
*1085 FILLER_0_4341
*1086 FILLER_0_4353
*1087 FILLER_0_4365
*1088 FILLER_0_4369
*1089 FILLER_0_4381
*1090 FILLER_0_4393
*1091 FILLER_0_4397
*1092 FILLER_0_4409
*1093 FILLER_0_4421
*1094 FILLER_0_4425
*1095 FILLER_0_4437
*1096 FILLER_0_4449
*1097 FILLER_0_445
*1098 FILLER_0_4453
*1099 FILLER_0_4465
*1100 FILLER_0_4477
*1101 FILLER_0_4481
*1102 FILLER_0_449
*1103 FILLER_0_4493
*1104 FILLER_0_4505
*1105 FILLER_0_4509
*1106 FILLER_0_4521
*1107 FILLER_0_4533
*1108 FILLER_0_4537
*1109 FILLER_0_4549
*1110 FILLER_0_4561
*1111 FILLER_0_4565
*1112 FILLER_0_4577
*1113 FILLER_0_4589
*1114 FILLER_0_4593
*1115 FILLER_0_4605
*1116 FILLER_0_461
*1117 FILLER_0_4617
*1118 FILLER_0_4621
*1119 FILLER_0_4633
*1120 FILLER_0_4645
*1121 FILLER_0_4649
*1122 FILLER_0_4661
*1123 FILLER_0_4673
*1124 FILLER_0_4677
*1125 FILLER_0_4686
*1126 FILLER_0_4698
*1127 FILLER_0_4705
*1128 FILLER_0_4717
*1129 FILLER_0_4728
*1130 FILLER_0_473
*1131 FILLER_0_4733
*1132 FILLER_0_4745
*1133 FILLER_0_4757
*1134 FILLER_0_4761
*1135 FILLER_0_477
*1136 FILLER_0_4773
*1137 FILLER_0_4785
*1138 FILLER_0_4789
*1139 FILLER_0_4801
*1140 FILLER_0_4812
*1141 FILLER_0_4817
*1142 FILLER_0_4829
*1143 FILLER_0_4841
*1144 FILLER_0_4845
*1145 FILLER_0_4857
*1146 FILLER_0_4869
*1147 FILLER_0_4873
*1148 FILLER_0_4885
*1149 FILLER_0_489
*1150 FILLER_0_4897
*1151 FILLER_0_4901
*1152 FILLER_0_4913
*1153 FILLER_0_4925
*1154 FILLER_0_4929
*1155 FILLER_0_4941
*1156 FILLER_0_4953
*1157 FILLER_0_4957
*1158 FILLER_0_4969
*1159 FILLER_0_4980
*1160 FILLER_0_4985
*1161 FILLER_0_4997
*1162 FILLER_0_500
*1163 FILLER_0_5009
*1164 FILLER_0_5013
*1165 FILLER_0_5022
*1166 FILLER_0_5034
*1167 FILLER_0_5041
*1168 FILLER_0_505
*1169 FILLER_0_5053
*1170 FILLER_0_5065
*1171 FILLER_0_5069
*1172 FILLER_0_5081
*1173 FILLER_0_5093
*1174 FILLER_0_5097
*1175 FILLER_0_5109
*1176 FILLER_0_5121
*1177 FILLER_0_5125
*1178 FILLER_0_5137
*1179 FILLER_0_5149
*1180 FILLER_0_5153
*1181 FILLER_0_5165
*1182 FILLER_0_517
*1183 FILLER_0_5177
*1184 FILLER_0_5181
*1185 FILLER_0_5193
*1186 FILLER_0_5197
*1187 FILLER_0_5205
*1188 FILLER_0_5209
*1189 FILLER_0_5221
*1190 FILLER_0_5233
*1191 FILLER_0_5237
*1192 FILLER_0_5249
*1193 FILLER_0_5261
*1194 FILLER_0_5265
*1195 FILLER_0_5277
*1196 FILLER_0_5281
*1197 FILLER_0_5289
*1198 FILLER_0_529
*1199 FILLER_0_5293
*1200 FILLER_0_53
*1201 FILLER_0_5305
*1202 FILLER_0_5317
*1203 FILLER_0_5321
*1204 FILLER_0_5326
*1205 FILLER_0_533
*1206 FILLER_0_5338
*1207 FILLER_0_5346
*1208 FILLER_0_5349
*1209 FILLER_0_5361
*1210 FILLER_0_5373
*1211 FILLER_0_5377
*1212 FILLER_0_5389
*1213 FILLER_0_5401
*1214 FILLER_0_5405
*1215 FILLER_0_5417
*1216 FILLER_0_542
*1217 FILLER_0_5429
*1218 FILLER_0_5433
*1219 FILLER_0_5445
*1220 FILLER_0_5457
*1221 FILLER_0_5461
*1222 FILLER_0_5473
*1223 FILLER_0_5485
*1224 FILLER_0_5489
*1225 FILLER_0_5494
*1226 FILLER_0_5506
*1227 FILLER_0_5514
*1228 FILLER_0_5517
*1229 FILLER_0_5529
*1230 FILLER_0_554
*1231 FILLER_0_5541
*1232 FILLER_0_5545
*1233 FILLER_0_5557
*1234 FILLER_0_5569
*1235 FILLER_0_5573
*1236 FILLER_0_5582
*1237 FILLER_0_5594
*1238 FILLER_0_5601
*1239 FILLER_0_561
*1240 FILLER_0_5613
*1241 FILLER_0_5625
*1242 FILLER_0_5629
*1243 FILLER_0_5641
*1244 FILLER_0_5653
*1245 FILLER_0_5657
*1246 FILLER_0_5666
*1247 FILLER_0_5678
*1248 FILLER_0_5685
*1249 FILLER_0_5697
*1250 FILLER_0_57
*1251 FILLER_0_5709
*1252 FILLER_0_5713
*1253 FILLER_0_5725
*1254 FILLER_0_573
*1255 FILLER_0_5737
*1256 FILLER_0_5741
*1257 FILLER_0_5750
*1258 FILLER_0_5762
*1259 FILLER_0_5769
*1260 FILLER_0_5781
*1261 FILLER_0_5793
*1262 FILLER_0_5797
*1263 FILLER_0_5809
*1264 FILLER_0_5821
*1265 FILLER_0_5825
*1266 FILLER_0_5837
*1267 FILLER_0_584
*1268 FILLER_0_5849
*1269 FILLER_0_5853
*1270 FILLER_0_5865
*1271 FILLER_0_5877
*1272 FILLER_0_5881
*1273 FILLER_0_589
*1274 FILLER_0_5893
*1275 FILLER_0_5905
*1276 FILLER_0_5909
*1277 FILLER_0_5921
*1278 FILLER_0_5933
*1279 FILLER_0_5937
*1280 FILLER_0_5949
*1281 FILLER_0_5961
*1282 FILLER_0_5965
*1283 FILLER_0_5970
*1284 FILLER_0_5982
*1285 FILLER_0_5990
*1286 FILLER_0_5993
*1287 FILLER_0_6005
*1288 FILLER_0_601
*1289 FILLER_0_6017
*1290 FILLER_0_6021
*1291 FILLER_0_6033
*1292 FILLER_0_6045
*1293 FILLER_0_6049
*1294 FILLER_0_6061
*1295 FILLER_0_6073
*1296 FILLER_0_6077
*1297 FILLER_0_6089
*1298 FILLER_0_6093
*1299 FILLER_0_6101
*1300 FILLER_0_6105
*1301 FILLER_0_6117
*1302 FILLER_0_6129
*1303 FILLER_0_613
*1304 FILLER_0_6133
*1305 FILLER_0_6145
*1306 FILLER_0_6157
*1307 FILLER_0_6161
*1308 FILLER_0_617
*1309 FILLER_0_6173
*1310 FILLER_0_6185
*1311 FILLER_0_6189
*1312 FILLER_0_6201
*1313 FILLER_0_6213
*1314 FILLER_0_6217
*1315 FILLER_0_6222
*1316 FILLER_0_6234
*1317 FILLER_0_6242
*1318 FILLER_0_6245
*1319 FILLER_0_6257
*1320 FILLER_0_626
*1321 FILLER_0_6269
*1322 FILLER_0_6273
*1323 FILLER_0_6285
*1324 FILLER_0_6297
*1325 FILLER_0_6301
*1326 FILLER_0_6313
*1327 FILLER_0_6319
*1328 FILLER_0_638
*1329 FILLER_0_645
*1330 FILLER_0_657
*1331 FILLER_0_669
*1332 FILLER_0_673
*1333 FILLER_0_685
*1334 FILLER_0_69
*1335 FILLER_0_697
*1336 FILLER_0_701
*1337 FILLER_0_713
*1338 FILLER_0_725
*1339 FILLER_0_729
*1340 FILLER_0_741
*1341 FILLER_0_753
*1342 FILLER_0_757
*1343 FILLER_0_769
*1344 FILLER_0_781
*1345 FILLER_0_785
*1346 FILLER_0_797
*1347 FILLER_0_8
*1348 FILLER_0_809
*1349 FILLER_0_81
*1350 FILLER_0_813
*1351 FILLER_0_825
*1352 FILLER_0_837
*1353 FILLER_0_841
*1354 FILLER_0_85
*1355 FILLER_0_853
*1356 FILLER_0_865
*1357 FILLER_0_869
*1358 FILLER_0_881
*1359 FILLER_0_885
*1360 FILLER_0_893
*1361 FILLER_0_897
*1362 FILLER_0_909
*1363 FILLER_0_921
*1364 FILLER_0_925
*1365 FILLER_0_937
*1366 FILLER_0_949
*1367 FILLER_0_953
*1368 FILLER_0_965
*1369 FILLER_0_97
*1370 FILLER_0_977
*1371 FILLER_0_981
*1372 FILLER_0_993
*1373 FILLER_1000_15
*1374 FILLER_1000_27
*1375 FILLER_1000_29
*1376 FILLER_1000_3
*1377 FILLER_1000_41
*1378 FILLER_1000_53
*1379 FILLER_1000_6239
*1380 FILLER_1000_6251
*1381 FILLER_1000_6263
*1382 FILLER_1000_6265
*1383 FILLER_1000_6277
*1384 FILLER_1000_6289
*1385 FILLER_1000_6301
*1386 FILLER_1000_6313
*1387 FILLER_1000_6319
*1388 FILLER_1000_65
*1389 FILLER_1000_77
*1390 FILLER_1000_81
*1391 FILLER_1001_15
*1392 FILLER_1001_27
*1393 FILLER_1001_3
*1394 FILLER_1001_39
*1395 FILLER_1001_51
*1396 FILLER_1001_55
*1397 FILLER_1001_57
*1398 FILLER_1001_6239
*1399 FILLER_1001_6251
*1400 FILLER_1001_6263
*1401 FILLER_1001_6275
*1402 FILLER_1001_6287
*1403 FILLER_1001_6291
*1404 FILLER_1001_6293
*1405 FILLER_1001_6305
*1406 FILLER_1001_6317
*1407 FILLER_1001_69
*1408 FILLER_1001_81
*1409 FILLER_1002_15
*1410 FILLER_1002_27
*1411 FILLER_1002_29
*1412 FILLER_1002_3
*1413 FILLER_1002_41
*1414 FILLER_1002_53
*1415 FILLER_1002_6239
*1416 FILLER_1002_6251
*1417 FILLER_1002_6263
*1418 FILLER_1002_6265
*1419 FILLER_1002_6277
*1420 FILLER_1002_6289
*1421 FILLER_1002_6301
*1422 FILLER_1002_6313
*1423 FILLER_1002_6319
*1424 FILLER_1002_65
*1425 FILLER_1002_77
*1426 FILLER_1002_81
*1427 FILLER_1003_15
*1428 FILLER_1003_27
*1429 FILLER_1003_3
*1430 FILLER_1003_39
*1431 FILLER_1003_51
*1432 FILLER_1003_55
*1433 FILLER_1003_57
*1434 FILLER_1003_6239
*1435 FILLER_1003_6251
*1436 FILLER_1003_6263
*1437 FILLER_1003_6275
*1438 FILLER_1003_6287
*1439 FILLER_1003_6291
*1440 FILLER_1003_6293
*1441 FILLER_1003_6305
*1442 FILLER_1003_6317
*1443 FILLER_1003_69
*1444 FILLER_1003_81
*1445 FILLER_1004_15
*1446 FILLER_1004_27
*1447 FILLER_1004_29
*1448 FILLER_1004_3
*1449 FILLER_1004_41
*1450 FILLER_1004_53
*1451 FILLER_1004_6239
*1452 FILLER_1004_6251
*1453 FILLER_1004_6263
*1454 FILLER_1004_6265
*1455 FILLER_1004_6277
*1456 FILLER_1004_6289
*1457 FILLER_1004_6301
*1458 FILLER_1004_6313
*1459 FILLER_1004_6319
*1460 FILLER_1004_65
*1461 FILLER_1004_77
*1462 FILLER_1004_81
*1463 FILLER_1005_15
*1464 FILLER_1005_27
*1465 FILLER_1005_3
*1466 FILLER_1005_39
*1467 FILLER_1005_51
*1468 FILLER_1005_55
*1469 FILLER_1005_57
*1470 FILLER_1005_6239
*1471 FILLER_1005_6251
*1472 FILLER_1005_6263
*1473 FILLER_1005_6275
*1474 FILLER_1005_6287
*1475 FILLER_1005_6291
*1476 FILLER_1005_6293
*1477 FILLER_1005_6305
*1478 FILLER_1005_6317
*1479 FILLER_1005_69
*1480 FILLER_1005_81
*1481 FILLER_1006_15
*1482 FILLER_1006_27
*1483 FILLER_1006_29
*1484 FILLER_1006_3
*1485 FILLER_1006_41
*1486 FILLER_1006_53
*1487 FILLER_1006_6239
*1488 FILLER_1006_6251
*1489 FILLER_1006_6263
*1490 FILLER_1006_6265
*1491 FILLER_1006_6277
*1492 FILLER_1006_6289
*1493 FILLER_1006_6301
*1494 FILLER_1006_6313
*1495 FILLER_1006_6319
*1496 FILLER_1006_65
*1497 FILLER_1006_77
*1498 FILLER_1006_81
*1499 FILLER_1007_15
*1500 FILLER_1007_27
*1501 FILLER_1007_3
*1502 FILLER_1007_39
*1503 FILLER_1007_51
*1504 FILLER_1007_55
*1505 FILLER_1007_57
*1506 FILLER_1007_6239
*1507 FILLER_1007_6251
*1508 FILLER_1007_6263
*1509 FILLER_1007_6275
*1510 FILLER_1007_6287
*1511 FILLER_1007_6291
*1512 FILLER_1007_6293
*1513 FILLER_1007_6305
*1514 FILLER_1007_6317
*1515 FILLER_1007_69
*1516 FILLER_1007_81
*1517 FILLER_1008_15
*1518 FILLER_1008_27
*1519 FILLER_1008_29
*1520 FILLER_1008_3
*1521 FILLER_1008_41
*1522 FILLER_1008_53
*1523 FILLER_1008_6239
*1524 FILLER_1008_6251
*1525 FILLER_1008_6263
*1526 FILLER_1008_6265
*1527 FILLER_1008_6277
*1528 FILLER_1008_6289
*1529 FILLER_1008_6301
*1530 FILLER_1008_6313
*1531 FILLER_1008_6319
*1532 FILLER_1008_65
*1533 FILLER_1008_77
*1534 FILLER_1008_81
*1535 FILLER_1009_15
*1536 FILLER_1009_27
*1537 FILLER_1009_3
*1538 FILLER_1009_39
*1539 FILLER_1009_51
*1540 FILLER_1009_55
*1541 FILLER_1009_57
*1542 FILLER_1009_6239
*1543 FILLER_1009_6251
*1544 FILLER_1009_6263
*1545 FILLER_1009_6275
*1546 FILLER_1009_6287
*1547 FILLER_1009_6291
*1548 FILLER_1009_6293
*1549 FILLER_1009_6305
*1550 FILLER_1009_6317
*1551 FILLER_1009_69
*1552 FILLER_1009_81
*1553 FILLER_100_15
*1554 FILLER_100_27
*1555 FILLER_100_29